geometry optimzed in LAMMPS
_audit_creation_date              2020-11-30 
_audit_creation_method            'lammps2cif' 
_symmetry_space_group_name_H-M    'P1' 
_symmetry_Int_Tables_number       1 
_symmetry_cell_setting            triclinic 
loop_ 
_symmetry_equiv_pos_as_xyz 
  x,y,z 
_cell_length_a                    38.3958109443788 
_cell_length_b                    30.894951021320285 
_cell_length_c                    36.312014374649095 
_cell_angle_alpha                 89.12717157434656 
_cell_angle_beta                  89.96847700898735 
_cell_angle_gamma                 89.9117498088474 
loop_ 
_atom_site_label 
_atom_site_type_symbol 
_atom_site_fract_x 
_atom_site_fract_y 
_atom_site_fract_z 
_atom_site_charge 
Zr1        Zr  0.57792306  0.47903393  0.50454748     2.17510
O2          O  0.63367093  0.50364152  0.52856922    -0.51920
O3          O  0.60253830  0.42829368  0.46094518    -0.75120
O4          O  0.60089047  0.42978434  0.55222290    -0.81910
O5          O  0.57362633  0.56785228  0.43253948    -0.83650
O6          O  0.55544818  0.40299153  0.58534338    -0.79280
O7          O  0.61258668  0.52805972  0.46560431    -0.90910
O8          O  0.55829752  0.39224249  0.43316645    -0.76870
O9          O  0.53833388  0.41964752  0.50675983    -0.86360
O10         O  0.54465551  0.48195113  0.44926139    -0.86370
O11         O  0.54274367  0.49106110  0.55844617    -0.72810
O12         O  0.54888806  0.54810176  0.50562852    -0.84950
Zr13       Zr  0.44048811  0.50167352  0.50424266     2.26420
Zr14       Zr  0.50263823  0.43183416  0.55948434     2.06270
Zr15       Zr  0.51545953  0.54958299  0.45040493     2.10050
Zr16       Zr  0.50457109  0.42343748  0.45183882     1.78760
O17         O  0.51375287  0.62813077  0.45454678    -0.93750
O18         O  0.49694392  0.34609520  0.46311977    -0.41560
O19         O  0.47513014  0.49111018  0.45058727    -0.78190
O20         O  0.46878685  0.43256022  0.50434599    -0.96880
O21         O  0.47228427  0.49905686  0.56034579    -0.90180
O22         O  0.47908857  0.56174554  0.50221167    -0.93020
C23         C  0.59038155  0.40053687  0.43836217     1.00730
C24         C  0.60466201  0.55738699  0.44147088     1.13660
C25         C  0.58802425  0.40650355  0.57857427     1.04440
O26         O  0.49955081  0.35346669  0.56659828    -0.95180
O27         O  0.44356944  0.41027484  0.57213971    -0.90920
O28         O  0.40566331  0.45558438  0.54252445    -0.84070
C29         C  0.41293674  0.42326898  0.56339879     1.11080
O30         O  0.56243593  0.58729847  0.58879417    -0.97150
Zr31       Zr  0.51129214  0.55843425  0.55785525     1.88940
O32         O  0.41206646  0.55257832  0.54410233    -0.73800
O33         O  0.49680314  0.44194026  0.62558377    -0.53060
O34         O  0.50659233  0.54637596  0.62414133    -0.97740
O35         O  0.51871099  0.63609770  0.54770520    -0.54960
O36         O  0.45458672  0.58975332  0.57359668    -0.74320
C37         C  0.42247022  0.58177223  0.56617211     0.98030
O38         O  0.38843402  0.47428799  0.47355197    -0.63140
O39         O  0.52027467  0.55666036  0.38358451    -0.57940
O40         O  0.41763611  0.55070934  0.45867639    -0.94620
O41         O  0.46226500  0.56163642  0.41843400    -0.93050
O42         O  0.50562266  0.43433172  0.38526364    -0.93410
O43         O  0.45315589  0.39440456  0.42173470    -0.92190
C44         C  0.43046660  0.56402071  0.42814454     1.16870
H45         H  0.55911462  0.48059345  0.42752986     0.32810
H46         H  0.45199327  0.40933611  0.50418221     0.43670
H47         H  0.46652746  0.58873094  0.49959480     0.37190
H48         H  0.55721516  0.49011669  0.58019542     0.33670
H49         H  0.50252219  0.33247310  0.43931481     0.25460
H50         H  0.49669678  0.41221491  0.63617174     0.31400
H51         H  0.49561332  0.57301981  0.63358812     0.37310
H52         H  0.51276685  0.40600199  0.37531638     0.31770
H53         H  0.53023011  0.58577148  0.37886965     0.30640
H54         H  0.50088318  0.63788454  0.43229703     0.32320
H55         H  0.50979699  0.64950984  0.57044808     0.31290
H56         H  0.43359884  0.41206176  0.43102844     0.35290
H57         H  0.39306214  0.47747264  0.44682362     0.28020
H58         H  0.65017445  0.47952857  0.52448530     0.32260
H59         H  0.55344392  0.60657866  0.60816144     0.35110
H60         H  0.53883526  0.53615950  0.37640265     0.27720
H61         H  0.38868847  0.44253925  0.47771323     0.40590
H62         H  0.51597856  0.34215535  0.54804859     0.30640
H63         H  0.51654720  0.33773253  0.47943676     0.38260
H64         H  0.50137040  0.64419799  0.52865769     0.30110
H65         H  0.51936710  0.45423779  0.63340615     0.30170
H66         H  0.63067756  0.50481907  0.55562330     0.30440
Zr67       Zr  0.95425012  0.47656505  0.51050377     2.17510
O68         O  0.89172578  0.48252605  0.49934315    -0.51920
O69         O  0.93808036  0.42763717  0.56175192    -0.75120
O70         O  0.93245616  0.42533361  0.46330407    -0.81910
O71         O  0.95639455  0.57793277  0.56929908    -0.83650
O72         O  0.97776091  0.40069814  0.42990531    -0.79280
O73         O  0.91977900  0.53298476  0.53889927    -0.90910
O74         O  0.98547640  0.40583435  0.59394838    -0.76870
O75         O  0.99840543  0.42294104  0.50830741    -0.86360
O76         O  0.99128943  0.48935165  0.56220997    -0.86050
O77         O  0.98270676  0.49120868  0.45267910    -0.72810
O78         O  0.97770275  0.54884979  0.50391558    -0.84950
Zr79       Zr  0.08931799  0.51911171  0.49547781     2.26420
Zr80       Zr  0.02816046  0.43834415  0.45168638     2.06270
Zr81       Zr  0.01598863  0.56012253  0.55483898     2.10050
Zr82       Zr  0.03510532  0.43520885  0.56001569     1.78760
O83         O  0.01134302  0.63850551  0.54883355    -0.93750
O84         O  0.03950842  0.35704707  0.55313266    -0.41560
O85         O  0.06018718  0.50599670  0.55314937    -0.78190
O86         O  0.06615278  0.44694112  0.50334762    -0.96880
O87         O  0.05200191  0.50902245  0.44413590    -0.90180
O88         O  0.04570948  0.57364910  0.49818282    -0.93020
C89         C  0.95241464  0.40727253  0.58911661     1.00730
C90         C  0.92598975  0.56541850  0.55960480     1.13660
C91         C  0.94530326  0.40185587  0.43729646     1.04440
O92         O  0.03931718  0.36096894  0.44799915    -0.95180
O93         O  0.08591969  0.42370906  0.43110002    -0.90920
O94         O  0.12310123  0.47196135  0.45636930    -0.84070
C95         C  0.11619456  0.43971726  0.43590720     1.11080
O96         O  0.95018221  0.58786562  0.42805700    -0.97150
Zr97       Zr  0.00764706  0.56241411  0.44727232     1.88940
O98         O  0.10632450  0.57110136  0.44676200    -0.73800
O99         O  0.02833474  0.45100584  0.38530906    -0.53060
O100        O  0.99975706  0.54745906  0.38210252    -0.97740
O101        O  0.99938153  0.64037788  0.45332345    -0.54960
O102        O  0.05769331  0.59387591  0.41625760    -0.74320
C103        C  0.09075032  0.59262577  0.42090549     0.98030
O104        O  0.14907027  0.50765806  0.51624405    -0.63140
O105        O  0.01332067  0.56091101  0.62191190    -0.57940
O106        O  0.11458945  0.56548821  0.54244024    -0.94620
O107        O  0.07037388  0.58928845  0.57865433    -0.93050
O108        O  0.04633875  0.45139712  0.62434752    -0.93410
O109        O  0.09140260  0.40718391  0.58015523    -0.92190
C110        C  0.10277193  0.58674464  0.56997748     1.16870
H111        H  0.97850351  0.48833518  0.58509914     0.32810
H112        H  0.08473688  0.42587081  0.50269464     0.43670
H113        H  0.05619061  0.60204490  0.49762723     0.37190
H114        H  0.96680675  0.48743569  0.43238832     0.33670
H115        H  0.03992647  0.34529510  0.57865342     0.25460
H116        H  0.03373083  0.42244241  0.37469406     0.31400
H117        H  0.00557755  0.57492287  0.36911827     0.37310
H118        H  0.04504551  0.42305940  0.63737847     0.31770
H119        H  0.00813251  0.59140119  0.62792627     0.30640
H120        H  0.01760015  0.64950216  0.57342612     0.32320
H121        H  0.00338056  0.65246950  0.42826518     0.31290
H122        H  0.10775752  0.43150136  0.57587204     0.35290
H123        H  0.15193903  0.47594318  0.51934744     0.28020
H124        H  0.88213493  0.45319469  0.50391678     0.32260
H125        H  0.95392760  0.60534717  0.40532210     0.35110
H126        H  0.99182031  0.54499479  0.62860377     0.27720
H127        H  0.16429026  0.51596944  0.49529276     0.40590
H128        H  0.03013644  0.34874726  0.47140930     0.30640
H129        H  0.01657979  0.34808439  0.54341225     0.38260
H130        H  0.01945144  0.65076748  0.46776882     0.30110
H131        H  0.00372735  0.45660771  0.37865190     0.30170
H132        H  0.88913687  0.48777929  0.47250958     0.30440
Zr133      Zr  0.51900335  0.50840104  0.08831498     2.17510
O134        O  0.49802614  0.54675586  0.14214278    -0.51920
O135        O  0.55993521  0.45837631  0.11612459    -0.75120
O136        O  0.48349405  0.46073619  0.12411630    -0.81910
O137        O  0.59074539  0.58720857  0.07000724    -0.83650
O138        O  0.44817095  0.42762118  0.08284918    -0.79280
O139        O  0.56190407  0.55372771  0.11711592    -0.90910
O140        O  0.57942868  0.41447374  0.07068491    -0.76870
O141        O  0.50846289  0.44531974  0.05290078    -0.86360
O142        O  0.56641798  0.50134768  0.04718119    -0.86050
O143        O  0.46369399  0.51897626  0.05880160    -0.72810
O144        O  0.51835238  0.57423842  0.05327109    -0.84950
Zr145      Zr  0.50113437  0.51424199  0.94192013     2.26420
Zr146      Zr  0.45477615  0.45689254  0.02128660     2.06270
Zr147      Zr  0.56518748  0.56580588  0.01127539     2.10050
Zr148      Zr  0.55578376  0.43886434  0.01172021     1.78760
O149        O  0.56808997  0.64437195  0.00637844    -0.93750
O150        O  0.54094362  0.36235601  0.01651219    -0.41560
O151        O  0.55537365  0.50313530  0.97421459    -0.78190
O152        O  0.50199709  0.44878976  0.97876127    -0.96880
O153        O  0.45414274  0.52110849  0.98439102    -0.90180
O154        O  0.51162398  0.57692707  0.97873817    -0.93020
C155        C  0.57843292  0.42702364  0.10422691     1.00730
C156        C  0.58569477  0.57879594  0.10440694     1.13660
C157        C  0.46012387  0.43352850  0.11537396     1.04440
O158        O  0.44415458  0.37947681  0.01689298    -0.95180
O159        O  0.42302773  0.43733998  0.96603463    -0.90920
O160        O  0.45259372  0.46740864  0.91768238    -0.84070
C161        C  0.42755657  0.44368983  0.93135081     1.11080
O162        O  0.44562035  0.61869764  0.07717188    -0.97150
Zr163      Zr  0.46453601  0.58283144  0.02117306     1.88940
O164        O  0.46339992  0.57029932  0.91631438    -0.73800
O165        O  0.39411578  0.47319666  0.03537543    -0.53060
O166        O  0.40151977  0.57754077  0.02809695    -0.97740
O167        O  0.47724796  0.66016333  0.01939050    -0.54960
O168        O  0.44133206  0.60854178  0.96403414    -0.74320
C169        C  0.44382348  0.59979609  0.92989056     0.98030
O170        O  0.51665679  0.47948454  0.88413838    -0.63140
O171        O  0.62821165  0.55577790  0.01109594    -0.57940
O172        O  0.54995444  0.55086657  0.90823024    -0.94620
O173        O  0.58688165  0.57927232  0.95042198    -0.93050
O174        O  0.61850835  0.44244228  0.00223035    -0.93410
O175        O  0.57482816  0.39959002  0.95767238    -0.92190
C176        C  0.57840066  0.57067376  0.91732403     1.16870
H177        H  0.58825882  0.49898599  0.06019914     0.32810
H178        H  0.49797591  0.42400874  0.96342355     0.43670
H179        H  0.51334927  0.60254732  0.96326727     0.37190
H180        H  0.44554372  0.52116467  0.07711565     0.33670
H181        H  0.56355440  0.34737731  0.01996373     0.25460
H182        H  0.38175394  0.44544149  0.03197181     0.31400
H183        H  0.39227720  0.60522164  0.01803682     0.37310
H184        H  0.62772529  0.41567944  0.01401250     0.31770
H185        H  0.63797446  0.58366550  0.01930256     0.30640
H186        H  0.59326742  0.65079998  0.00417217     0.32320
H187        H  0.45526910  0.67414689  0.01128605     0.31290
H188        H  0.56604920  0.41706079  0.93654758     0.35290
H189        H  0.54240066  0.47770960  0.88393605     0.28020
H190        H  0.50534797  0.52882167  0.16360216     0.32260
H191        H  0.42784921  0.64019038  0.06934085     0.35110
H192        H  0.63362372  0.53508496  0.03135642     0.27720
H193        H  0.50951132  0.44892869  0.88743295     0.40590
H194        H  0.46423519  0.36567159  0.02950646     0.30640
H195        H  0.52915131  0.35913334  0.04065253     0.38260
H196        H  0.49332297  0.66438719  0.99833459     0.30110
H197        H  0.39342091  0.47782312  0.06228273     0.30170
H198        H  0.47234562  0.54423172  0.14136035     0.30440
Zr199      Zr  0.52352211  0.90888035  0.49115354     2.17510
O200        O  0.50011180  0.83952566  0.51204230    -0.51920
O201        O  0.56262617  0.88458989  0.44359930    -0.75120
O202        O  0.48507694  0.88194684  0.44266483    -0.81910
O203        O  0.59413788  0.91362737  0.56322881    -0.83650
O204        O  0.45536969  0.94077579  0.42212268    -0.79280
O205        O  0.56826764  0.86655015  0.52412832    -0.90910
O206        O  0.59357158  0.94348864  0.42404246    -0.76870
O207        O  0.52222244  0.96424236  0.44473566    -0.86360
O208        O  0.57281152  0.95433913  0.49966652    -0.86050
O209        O  0.46981469  0.94731802  0.50108635    -0.72810
O210        O  0.51716543  0.93723537  0.55230745    -0.84950
Zr211      Zr  0.51358509  0.07925030  0.52379228     2.26420
Zr212      Zr  0.47032578  0.00392385  0.45567653     2.06270
Zr213      Zr  0.56629411  0.98313676  0.55962334     2.10050
Zr214      Zr  0.57165442  0.00867496  0.45345750     1.78760
O215        O  0.55716573  0.96143771  0.62361624    -0.93750
O216        O  0.56342065  0.02273858  0.38782954    -0.41560
O217        O  0.56646843  0.03921935  0.51363491    -0.78190
O218        O  0.51969581  0.04998703  0.46280665    -0.96880
O219        O  0.46393250  0.03437444  0.51497904    -0.90180
O220        O  0.51448517  0.02352201  0.57005509    -0.93020
C221        C  0.58637327  0.90285906  0.42411772     1.00730
C222        C  0.59142062  0.87666206  0.54818372     1.13660
C223        C  0.46275830  0.90046904  0.42115373     1.04440
O224        O  0.46963300  0.02270964  0.39028781    -0.95180
O225        O  0.44955426  0.07546948  0.44427369    -0.90920
O226        O  0.47564425  0.12275303  0.48306359    -0.84070
C227        C  0.45485619  0.11335145  0.45655081     1.11080
O228        O  0.44442536  0.90952981  0.58541066    -0.97150
Zr229      Zr  0.46485534  0.97889450  0.56078198     1.88940
O230        O  0.46878729  0.10276914  0.56735814    -0.73800
O231        O  0.40703982  0.99932422  0.45891477    -0.53060
O232        O  0.40375029  0.96975932  0.54449212    -0.97740
O233        O  0.46767210  0.97287712  0.62785922    -0.54960
O234        O  0.43632382  0.04368766  0.58302359    -0.74320
C235        C  0.44269247  0.08444855  0.58354492     0.98030
O236        O  0.53887328  0.14981207  0.50816556    -0.63140
O237        O  0.62896051  0.99167377  0.56736146    -0.57940
O238        O  0.55622784  0.10595037  0.56901061    -0.94620
O239        O  0.58632204  0.04686635  0.58892462    -0.93050
O240        O  0.63393894  0.01026124  0.46606674    -0.93410
O241        O  0.59890934  0.07605161  0.43317462    -0.92190
C242        C  0.58052924  0.08757965  0.58819441     1.16870
H243        H  0.59447827  0.93884628  0.49720804     0.32810
H244        H  0.51922996  0.07306091  0.44456088     0.43670
H245        H  0.51452446  0.03591254  0.59430499     0.37190
H246        H  0.45032383  0.92818865  0.49721379     0.33670
H247        H  0.58698152  0.01993287  0.37700485     0.25460
H248        H  0.39913497  0.00467002  0.43329079     0.31400
H249        H  0.39054920  0.98044567  0.56595970     0.37310
H250        H  0.64508824  0.00142663  0.44275607     0.31770
H251        H  0.63574018  0.97151720  0.58758341     0.30640
H252        H  0.58000964  0.96609606  0.63554632     0.32320
H253        H  0.44331325  0.97660724  0.63622947     0.31290
H254        H  0.58904067  0.09824922  0.44958455     0.35290
H255        H  0.56441518  0.14566019  0.50967489     0.28020
H256        H  0.50678607  0.81888067  0.49266851     0.32260
H257        H  0.42196329  0.91554369  0.59774146     0.35110
H258        H  0.63935802  0.97934862  0.54488169     0.27720
H259        H  0.53474703  0.15424404  0.48146268     0.40590
H260        H  0.48575786  0.00189308  0.37873254     0.30640
H261        H  0.55070793  0.99711795  0.37886373     0.38260
H262        H  0.47958568  0.99935109  0.63619099     0.30110
H263        H  0.40187968  0.96836970  0.46372933     0.30170
H264        H  0.47453092  0.84259699  0.50970268     0.30440
Zr265      Zr  0.00794182  0.49301218  0.93620364     2.17510
O266        O  0.02227274  0.52146674  0.87509153    -0.51920
O267        O  0.96909299  0.43783692  0.91434606    -0.75120
O268        O  0.05558190  0.45040373  0.90760503    -0.81910
O269        O  0.93203067  0.57467620  0.95334816    -0.83650
O270        O  0.09067299  0.42342483  0.95316728    -0.79280
O271        O  0.95942575  0.53824895  0.90766420    -0.90910
O272        O  0.94340170  0.40523045  0.96356902    -0.76870
O273        O  0.01713540  0.43312802  0.97828070    -0.86360
O274        O  0.96089037  0.49079741  0.97852806    -0.86050
O275        O  0.06227749  0.50495217  0.96809682    -0.72810
O276        O  0.00985263  0.56138872  0.96649914    -0.84950
Zr277      Zr  0.02527951  0.51039347  0.08392423     2.26420
Zr278      Zr  0.06996942  0.44606104  0.01166246     2.06270
Zr279      Zr  0.96316442  0.55745877  0.00962728     2.10050
Zr280      Zr  0.96946791  0.43148076  0.01979903     1.78760
O281        O  0.95880344  0.63570623  0.00200827    -0.93750
O282        O  0.98417788  0.35477007  0.02003753    -0.41560
O283        O  0.97093926  0.49828474  0.05232670    -0.78190
O284        O  0.02239105  0.44210376  0.05348185    -0.96880
O285        O  0.07223705  0.51327221  0.04156547    -0.90180
O286        O  0.01628591  0.57007128  0.04178119    -0.93020
C287        C  0.94699100  0.41165443  0.92874139     1.00730
C288        C  0.93491160  0.56381866  0.91959865     1.13660
C289        C  0.08276744  0.42941583  0.91932922     1.04440
O290        O  0.07870058  0.36800857  0.01261459    -0.95180
O291        O  0.09577321  0.42438356  0.07057273    -0.90920
O292        O  0.07143397  0.46543144  0.11503280    -0.84070
C293        C  0.09359492  0.43649042  0.10426214     1.11080
O294        O  0.08207244  0.60194740  0.94000037    -0.97150
Zr295      Zr  0.06318652  0.57195610  0.99929367     1.88940
O296        O  0.06610357  0.56448743  0.10453896    -0.73800
O297        O  0.13075725  0.46725546  0.01708857    -0.53060
O298        O  0.12603700  0.56838188  0.99020053    -0.97740
O299        O  0.04885766  0.64894736  0.99699584    -0.54960
O300        O  0.08979492  0.59818877  0.05442972    -0.74320
C301        C  0.08715043  0.59147233  0.08912965     0.98030
O302        O  0.00562537  0.48129073  0.14327633    -0.63140
O303        O  0.90134249  0.54277673  0.01854315    -0.57940
O304        O  0.98211019  0.55645840  0.11408711    -0.94620
O305        O  0.94873608  0.58539149  0.06829881    -0.93050
O306        O  0.90709213  0.43671545  0.03119520    -0.93410
O307        O  0.94956272  0.39540154  0.07604895    -0.92190
C308        C  0.95663448  0.57990889  0.10212099     1.16870
H309        H  0.93890056  0.48825364  0.96588857     0.32810
H310        H  0.02555549  0.41852986  0.07095047     0.43670
H311        H  0.01517373  0.59694743  0.05495797     0.37190
H312        H  0.08140890  0.50616860  0.95085616     0.33670
H313        H  0.96166904  0.33984324  0.01635391     0.25460
H314        H  0.14419824  0.43990779  0.01697750     0.31400
H315        H  0.13495134  0.59684455  0.99806285     0.37310
H316        H  0.89712851  0.41004708  0.02072629     0.31770
H317        H  0.88877451  0.56620080  0.00520724     0.30640
H318        H  0.93407961  0.64240771  0.00724898     0.32320
H319        H  0.07158922  0.66398798  0.99752187     0.31290
H320        H  0.95616459  0.41531754  0.09597586     0.35290
H321        H  0.97986517  0.48156730  0.14201909     0.28020
H322        H  0.01975435  0.49661275  0.85839960     0.32260
H323        H  0.09714735  0.62697051  0.94557925     0.35110
H324        H  0.89617696  0.51635176  0.00458023     0.27720
H325        H  0.01150014  0.45010442  0.14276500     0.40590
H326        H  0.06092165  0.35681432  0.03005688     0.30640
H327        H  0.99702178  0.35039346  0.99673681     0.38260
H328        H  0.03822576  0.65538638  0.02112638     0.30110
H329        H  0.13646716  0.48223595  0.99363212     0.30170
H330        H  0.04759924  0.52740554  0.87578465     0.30440
Zr331      Zr  0.95837001  0.98106137  0.48908864     2.17510
O332        O  0.89962827  0.99731324  0.51047548    -0.51920
O333        O  0.94070898  0.92928487  0.44357736    -0.75120
O334        O  0.92711506  0.02973147  0.44661312    -0.81910
O335        O  0.97205848  0.90539229  0.57119925    -0.83650
O336        O  0.96701184  0.07402099  0.41933153    -0.79280
O337        O  0.92978123  0.93104086  0.53288458    -0.90910
O338        O  0.98708118  0.90556723  0.41090103    -0.76870
O339        O  0.99609469  0.98842576  0.43726974    -0.86360
O340        O  0.99897004  0.92283117  0.49178323    -0.86050
O341        O  0.98509263  0.05102490  0.49551905    -0.72810
O342        O  0.98809985  0.99118960  0.54645982    -0.84950
Zr343      Zr  0.09521124  0.00989771  0.50029046     2.26420
Zr344      Zr  0.02299375  0.05729411  0.44337964     2.06270
Zr345      Zr  0.02848387  0.93272641  0.54840025     2.10050
Zr346      Zr  0.03791156  0.93151963  0.44097203     1.78760
O347        O  0.02925129  0.93401443  0.61542300    -0.93750
O348        O  0.04845095  0.94106504  0.37515626    -0.41560
O349        O  0.06797503  0.93994848  0.49739866    -0.78190
O350        O  0.06531810  0.00075663  0.44346310    -0.96880
O351        O  0.05467134  0.06778346  0.49871913    -0.90180
O352        O  0.05797532  0.00067911  0.55291133    -0.93020
C353        C  0.95453844  0.90771616  0.41741141     1.00730
C354        C  0.93994604  0.90843545  0.56100751     1.13660
C355        C  0.93600683  0.06067317  0.42446654     1.04440
O356        O  0.02811874  0.05493215  0.37657071    -0.95180
O357        O  0.07511383  0.09353221  0.42499458    -0.90920
O358        O  0.11960685  0.06682226  0.45953647    -0.84070
C359        C  0.10716341  0.09227303  0.43427681     1.11080
O360        O  0.96451081  0.08834281  0.57667431    -0.97150
Zr361      Zr  0.01824027  0.05918173  0.55108724     1.88940
O362        O  0.11859280  0.05830444  0.54541220    -0.73800
O363        O  0.01420870  0.13537954  0.44524142    -0.53060
O364        O  0.01388024  0.13663480  0.53832336    -0.97740
O365        O  0.01340646  0.04742931  0.61746624    -0.54960
O366        O  0.07278962  0.08690591  0.57672737    -0.74320
C367        C  0.10556144  0.08217371  0.57041240     0.98030
O368        O  0.14996749  0.98635600  0.47274884    -0.63140
O369        O  0.03433448  0.85419193  0.54718446    -0.57940
O370        O  0.12770643  0.96101750  0.53947371    -0.94620
O371        O  0.08727054  0.91632700  0.56611906    -0.93050
O372        O  0.04062244  0.85358057  0.45171460    -0.93410
O373        O  0.09370057  0.90129270  0.42216720    -0.92190
C374        C  0.11843878  0.92996884  0.56102270     1.16870
H375        H  0.98735799  0.89512626  0.49137866     0.32810
H376        H  0.08111227  0.00426051  0.42291641     0.43670
H377        H  0.07133045  0.00104167  0.57543687     0.37190
H378        H  0.96749772  0.07339404  0.49457414     0.33670
H379        H  0.04564811  0.91180648  0.36480541     0.25460
H380        H  0.00868091  0.14414687  0.41955387     0.31400
H381        H  0.02487260  0.15049904  0.55978888     0.37310
H382        H  0.04084150  0.84098236  0.42680601     0.31770
H383        H  0.03400975  0.84496011  0.57341200     0.30640
H384        H  0.03626988  0.90438320  0.62310859     0.32320
H385        H  0.02210587  0.07447888  0.62845926     0.31290
H386        H  0.10936607  0.92658406  0.41963867     0.35290
H387        H  0.14853078  0.95436799  0.47246610     0.28020
H388        H  0.88395204  0.98943552  0.48999211     0.32260
H389        H  0.97171339  0.11204705  0.59305023     0.35110
H390        H  0.01200568  0.84356208  0.53717352     0.27720
H391        H  0.14842834  0.99487015  0.44640622     0.40590
H392        H  0.00891746  0.03588877  0.36860130     0.30640
H393        H  0.02802801  0.95749529  0.36588893     0.38260
H394        H  0.03142941  0.02557309  0.62364941     0.30110
H395        H  0.99217812  0.13948010  0.45894044     0.30170
H396        H  0.89837895  0.02927702  0.51166758     0.30440
Zr397      Zr  0.53190945  0.97388339  0.93745605     2.17510
O398        O  0.51173541  0.98715507  0.87455212    -0.51920
O399        O  0.57529408  0.92053118  0.91472618    -0.75120
O400        O  0.56776731  0.02637789  0.90366260    -0.81910
O401        O  0.44768643  0.91078230  0.95737788    -0.83650
O402        O  0.59484667  0.06940941  0.94511913    -0.79280
O403        O  0.48342367  0.93308102  0.91081740    -0.90910
O404        O  0.60479846  0.89216382  0.96330244    -0.76870
O405        O  0.58187225  0.97946467  0.97584158    -0.86360
O406        O  0.52824703  0.91482643  0.98006420    -0.86050
O407        O  0.52633475  0.04342737  0.96715967    -0.72810
O408        O  0.47905699  0.98586359  0.97192477    -0.84950
Zr409      Zr  0.52161810  0.99871778  0.08335405     2.26420
Zr410      Zr  0.57650033  0.04746278  0.00628488     2.06270
Zr411      Zr  0.47598964  0.92661805  0.01470316     2.10050
Zr412      Zr  0.57809646  0.92065542  0.01861185     1.78760
O413        O  0.41303928  0.93120665  0.02220503    -0.93750
O414        O  0.64038459  0.93122662  0.02739343    -0.41560
O415        O  0.52581454  0.93000317  0.05365435    -0.78190
O416        O  0.57496701  0.98863208  0.04971541    -0.96880
O417        O  0.52471373  0.05824050  0.04128997    -0.90180
O418        O  0.47134157  0.99389848  0.04550145    -0.93020
C419        C  0.59942117  0.89583558  0.92857711     1.00730
C420        C  0.45554831  0.91484601  0.92326707     1.13660
C421        C  0.58821384  0.05748593  0.91224540     1.04440
O422        O  0.63971138  0.04154837  0.00876706    -0.95180
O423        O  0.59356420  0.07821642  0.06461618    -0.90920
O424        O  0.55913541  0.05235323  0.11066240    -0.84070
C425        C  0.58381337  0.07653139  0.09848805     1.11080
O426        O  0.44966516  0.08606272  0.94808061    -0.97150
Zr427      Zr  0.47464352  0.05351843  0.00372203     1.88940
O428        O  0.47898702  0.04826112  0.10981497    -0.73800
O429        O  0.57760355  0.12622710  0.00134472    -0.53060
O430        O  0.48973708  0.13005689  0.99996874    -0.97740
O431        O  0.41164319  0.04566998  0.99857893    -0.54960
O432        O  0.45158384  0.08215493  0.06184968    -0.74320
C433        C  0.45659078  0.07527380  0.09654969     0.98030
O434        O  0.54992148  0.97131578  0.13918741    -0.63140
O435        O  0.47496692  0.84778411  0.01320058    -0.57940
O436        O  0.48433819  0.94975494  0.11771412    -0.94620
O437        O  0.46285484  0.90176054  0.07655257    -0.93050
O438        O  0.56624622  0.84327617  0.02197771    -0.93410
O439        O  0.59969451  0.88666852  0.07508377    -0.92190
C440        C  0.46731442  0.91567011  0.10930350     1.16870
H441        H  0.52771218  0.88751166  0.96748093     0.32810
H442        H  0.59455367  0.99058894  0.06629103     0.43670
H443        H  0.45023058  0.99464489  0.05995869     0.37190
H444        H  0.52670188  0.06653163  0.94895349     0.33670
H445        H  0.65079061  0.90211273  0.02465154     0.25460
H446        H  0.60181333  0.13353274  0.99421121     0.31400
H447        H  0.47039571  0.14516382  0.01246769     0.37310
H448        H  0.58845873  0.82930203  0.01496796     0.31770
H449        H  0.45035761  0.83996263  0.01796064     0.30640
H450        H  0.40535723  0.90094867  0.02633101     0.32320
H451        H  0.40192451  0.07278263  0.00857352     0.31290
H452        H  0.59214907  0.90625359  0.09488258     0.35290
H453        H  0.54483813  0.93992171  0.14034830     0.28020
H454        H  0.53195788  0.98120907  0.85844986     0.32260
H455        H  0.43642612  0.11168813  0.95633232     0.35110
H456        H  0.47882574  0.84033735  0.98709282     0.27720
H457        H  0.57508628  0.97237303  0.13333128     0.40590
H458        H  0.64642041  0.02863273  0.98499846     0.30640
H459        H  0.64806710  0.94752525  0.00516670     0.38260
H460        H  0.40534322  0.02316301  0.01707512     0.30110
H461        H  0.56343595  0.13356399  0.97933894     0.30170
H462        H  0.50783270  0.01879167  0.87243684     0.30440
Zr463      Zr  0.09661088  0.00066867  0.00921526     2.17510
O464        O  0.15013829  0.02858193  0.03593924    -0.51920
O465        O  0.12382813  0.95442147  0.96396088    -0.75120
O466        O  0.12293638  0.94591931  0.05003239    -0.81910
O467        O  0.08359091  0.09678823  0.94675958    -0.83650
O468        O  0.07947342  0.90977563  0.07985457    -0.79280
O469        O  0.12687883  0.05471048  0.97051072    -0.90910
O470        O  0.08061800  0.91870986  0.93434104    -0.76870
O471        O  0.05947721  0.93880346  0.00955331    -0.86360
O472        O  0.06001759  0.00735117  0.95645797    -0.86050
O473        O  0.06410071  0.00292529  0.06587362    -0.72810
O474        O  0.06457640  0.06693118  0.01654611    -0.84950
Zr475      Zr  0.95592867  0.01483522  0.02058996     2.26420
Zr476      Zr  0.02496750  0.94259742  0.06418881     2.06270
Zr477      Zr  0.02669082  0.07181918  0.96469018     2.10050
Zr478      Zr  0.02376365  0.94541843  0.95675840     1.78760
O479        O  0.02685289  0.15012101  0.97118733    -0.93750
O480        O  0.02068183  0.86694927  0.96373469    -0.41560
O481        O  0.98946739  0.01009942  0.96447215    -0.78190
O482        O  0.98797253  0.94816198  0.01153019    -0.96880
O483        O  0.99337343  0.00789357  0.07249997    -0.90180
O484        O  0.99390739  0.07589155  0.02027880    -0.93020
C485        C  0.11304117  0.92727334  0.94015505     1.00730
C486        C  0.11577518  0.08637609  0.95018856     1.13660
C487        C  0.11151561  0.91649727  0.07247758     1.04440
O488        O  0.01590348  0.86492782  0.05930431    -0.95180
O489        O  0.96965593  0.92072938  0.08966695    -0.90920
O490        O  0.92753809  0.96340381  0.06455850    -0.84070
C491        C  0.93774832  0.93231263  0.08625127     1.11080
O492        O  0.08540668  0.10103549  0.09400626    -0.97150
Zr493      Zr  0.03149150  0.06835076  0.07231796     1.88940
O494        O  0.93273513  0.06372966  0.06783014    -0.73800
O495        O  0.03008227  0.94203719  0.13111844    -0.53060
O496        O  0.03993111  0.04766880  0.13673963    -0.97740
O497        O  0.03007399  0.14734307  0.07024704    -0.54960
O498        O  0.97784361  0.08853947  0.10214992    -0.74320
C499        C  0.94530316  0.08468598  0.09534623     0.98030
O500        O  0.90100513  0.98847125  0.99550494    -0.63140
O501        O  0.02611193  0.07483740  0.89754936    -0.57940
O502        O  0.92830443  0.06381086  0.97374271    -0.94620
O503        O  0.97143830  0.09647415  0.94073709    -0.93050
O504        O  0.02217089  0.96377859  0.89132296    -0.93410
O505        O  0.97360897  0.91505074  0.92534030    -0.92190
C506        C  0.93917610  0.08948000  0.94757810     1.16870
H507        H  0.07358606  0.00900896  0.93407397     0.32810
H508        H  0.97194439  0.92408324  0.01147061     0.43670
H509        H  0.98067883  0.10247888  0.02092109     0.37190
H510        H  0.07982075  0.99993527  0.08651752     0.33670
H511        H  0.02362506  0.85587536  0.93847127     0.25460
H512        H  0.03187302  0.91101839  0.13814603     0.31400
H513        H  0.03718224  0.07479848  0.15058947     0.37310
H514        H  0.03296263  0.93867374  0.87907300     0.31770
H515        H  0.03060262  0.10558532  0.89112186     0.30640
H516        H  0.02616188  0.16166089  0.94560769     0.32320
H517        H  0.02407255  0.15592444  0.09564132     0.31290
H518        H  0.95324821  0.92894708  0.93704768     0.35290
H519        H  0.90666646  0.98181068  0.96961151     0.28020
H520        H  0.16837386  0.00724693  0.02959883     0.32260
H521        H  0.07919196  0.11755248  0.11622070     0.35110
H522        H  0.04743497  0.05943957  0.88973910     0.27720
H523        H  0.89667260  0.95962322  0.00675827     0.40590
H524        H  0.03476448  0.85488236  0.04292812     0.30640
H525        H  0.04260220  0.85873774  0.97638372     0.38260
H526        H  0.00926012  0.15524413  0.05555510     0.30110
H527        H  0.05342257  0.95402910  0.13636169     0.30170
H528        H  0.14704702  0.02536200  0.06291736     0.30440
Zr529      Zr  0.70432856  0.72352100  0.27515361     2.17510
O530        O  0.64486655  0.74510015  0.25986122    -0.51920
O531        O  0.68718785  0.67041642  0.32207840    -0.75120
O532        O  0.67682452  0.67446460  0.23110850    -0.81910
O533        O  0.71461013  0.81583658  0.34234908    -0.83650
O534        O  0.71952104  0.64726051  0.19523915    -0.79280
O535        O  0.67372274  0.77237791  0.31711199    -0.90910
O536        O  0.73491989  0.64100813  0.34980772    -0.76870
O537        O  0.74544917  0.66573257  0.27202686    -0.86360
O538        O  0.74353802  0.73133869  0.32529892    -0.86050
O539        O  0.73279829  0.73369208  0.21649180    -0.72810
O540        O  0.73078331  0.79345606  0.26565837    -0.84950
Zr541      Zr  0.84076783  0.75304023  0.25472347     2.26420
Zr542      Zr  0.77470454  0.67632296  0.21454302     2.06270
Zr543      Zr  0.77045219  0.79980725  0.31578241     2.10050
Zr544      Zr  0.78511872  0.67465550  0.32168652     1.78760
O545        O  0.76239356  0.87797498  0.31355320    -0.93750
O546        O  0.79464548  0.59752520  0.31276257    -0.41560
O547        O  0.81264381  0.74348432  0.31322324    -0.78190
O548        O  0.81474773  0.68296886  0.26433453    -0.96880
O549        O  0.80202961  0.74465880  0.20437501    -0.90180
O550        O  0.79967654  0.81047232  0.25847344    -0.93020
C551        C  0.70199580  0.64517066  0.34584800     1.00730
C552        C  0.68328036  0.80237280  0.33923047     1.13660
C553        C  0.68746891  0.65100644  0.20425484     1.04440
O554        O  0.77997659  0.59776271  0.21471381    -0.95180
O555        O  0.83293106  0.65771914  0.19576249    -0.90920
O556        O  0.87335919  0.70581745  0.21520445    -0.84070
C557        C  0.86417078  0.67232082  0.19742247     1.11080
O558        O  0.70570683  0.82696557  0.18274782    -0.97150
Zr559      Zr  0.76121098  0.80217492  0.20803156     1.88940
O560        O  0.86047523  0.80371343  0.20665913    -0.73800
O561        O  0.77528494  0.68047267  0.14748825    -0.53060
O562        O  0.75699386  0.78453298  0.14299976    -0.97740
O563        O  0.75211440  0.87984854  0.21446503    -0.54960
O564        O  0.81305735  0.83474583  0.17984790    -0.74320
C565        C  0.84618613  0.82963097  0.18301577     0.98030
O566        O  0.89619216  0.72915340  0.28122263    -0.63140
O567        O  0.78147628  0.79622871  0.38184046    -0.57940
O568        O  0.86805020  0.80620058  0.29289036    -0.94620
O569        O  0.82613538  0.82721214  0.33279559    -0.93050
O570        O  0.79086620  0.68961929  0.38707364    -0.93410
O571        O  0.84018662  0.64983375  0.34782635    -0.92190
C572        C  0.85740209  0.82698309  0.32096989     1.16870
H573        H  0.73156450  0.73031898  0.34869813     0.32810
H574        H  0.83235460  0.66063791  0.26377521     0.43670
H575        H  0.81106181  0.83832127  0.25743134     0.37190
H576        H  0.71616563  0.73108844  0.19671971     0.33670
H577        H  0.79399524  0.58455972  0.33785940     0.25460
H578        H  0.77862715  0.65022330  0.13958515     0.31400
H579        H  0.76490512  0.81090366  0.12962879     0.37310
H580        H  0.78564817  0.66176573  0.39974133     0.31770
H581        H  0.77819078  0.82613814  0.39056275     0.30640
H582        H  0.75825678  0.88616513  0.33944690     0.32320
H583        H  0.76097362  0.89291277  0.19122418     0.31290
H584        H  0.85810087  0.66742776  0.33497005     0.35290
H585        H  0.89456076  0.73513215  0.30787538     0.28020
H586        H  0.63022723  0.71948294  0.26551882     0.32260
H587        H  0.71163718  0.84624794  0.16163855     0.35110
H588        H  0.76184287  0.77956733  0.39250620     0.27720
H589        H  0.89536342  0.69717618  0.28050645     0.40590
H590        H  0.76139589  0.58736512  0.23154894     0.30640
H591        H  0.77301376  0.58719656  0.30098653     0.38260
H592        H  0.76896717  0.88902296  0.23340485     0.30110
H593        H  0.75111048  0.68780510  0.14023480     0.30170
H594        H  0.64434300  0.74826494  0.23268682     0.30440
Zr595      Zr  0.83343469  0.25463364  0.76791876     2.17510
O596        O  0.88909796  0.22289695  0.75055908    -0.51920
O597        O  0.85705670  0.30650580  0.81016685    -0.75120
O598        O  0.86354997  0.30086348  0.72033419    -0.81910
O599        O  0.81562482  0.16894653  0.84432690    -0.83650
O600        O  0.82115702  0.33327614  0.68663217    -0.79280
O601        O  0.85935488  0.20629784  0.81616839    -0.90910
O602        O  0.81235810  0.33761409  0.84127580    -0.76870
O603        O  0.79661323  0.31685896  0.76255582    -0.86360
O604        O  0.79420806  0.25358498  0.81903548    -0.86050
O605        O  0.80280473  0.24670269  0.71064666    -0.72810
O606        O  0.80074106  0.18826096  0.76400544    -0.84950
Zr607      Zr  0.69372345  0.24329633  0.75364026     2.26420
Zr608      Zr  0.76509916  0.30831720  0.70647241     2.06270
Zr609      Zr  0.76127440  0.18857517  0.81507316     2.10050
Zr610      Zr  0.75788151  0.31539694  0.81373290     1.78760
O611        O  0.76791953  0.11020515  0.81537830    -0.93750
O612        O  0.75974763  0.39343347  0.80322805    -0.41560
O613        O  0.72391522  0.25044443  0.81113157    -0.78190
O614        O  0.72585183  0.30974211  0.75750161    -0.96880
O615        O  0.73223520  0.24378647  0.70249702    -0.90180
O616        O  0.73034628  0.18107039  0.75874442    -0.93020
C617        C  0.84483308  0.33086280  0.83535651     1.00730
C618        C  0.84785580  0.17902696  0.84078941     1.13660
C619        C  0.85322233  0.32646347  0.69379248     1.04440
O620        O  0.76233506  0.38698341  0.70264046    -0.95180
O621        O  0.71032523  0.32859498  0.67895679    -0.90920
O622        O  0.66688616  0.29019859  0.70673819    -0.84070
C623        C  0.67832060  0.31777406  0.68271369     1.11080
O624        O  0.82152048  0.14639798  0.68629084    -0.97150
Zr625      Zr  0.76866432  0.18220158  0.70755950     1.88940
O626        O  0.66806528  0.19657809  0.70826493    -0.73800
O627        O  0.76690097  0.29609803  0.64030988    -0.53060
O628        O  0.77701901  0.19469602  0.64170755    -0.97740
O629        O  0.76627345  0.10384606  0.71679545    -0.54960
O630        O  0.71318094  0.16436432  0.67909094    -0.74320
C631        C  0.68052251  0.17190646  0.68339498     0.98030
O632        O  0.64131365  0.27623715  0.77881462    -0.63140
O633        O  0.75102513  0.19428155  0.88105511    -0.57940
O634        O  0.66311294  0.19153354  0.79370071    -0.94620
O635        O  0.70456128  0.15896589  0.82938093    -0.93050
O636        O  0.74860088  0.30361193  0.87948592    -0.93410
O637        O  0.70617828  0.35317006  0.83531287    -0.92190
C638        C  0.67294925  0.16422237  0.81874491     1.16870
H639        H  0.80651260  0.25400967  0.84221161     0.32810
H640        H  0.71021413  0.33415627  0.75515198     0.43670
H641        H  0.71673395  0.15483458  0.75873167     0.37190
H642        H  0.81906546  0.24667441  0.69034725     0.33670
H643        H  0.76563966  0.40559252  0.82751716     0.25460
H644        H  0.76253943  0.32479698  0.62871975     0.31400
H645        H  0.76636803  0.16934688  0.62976819     0.37310
H646        H  0.75088476  0.33262050  0.89043189     0.31770
H647        H  0.75610921  0.16501525  0.89118640     0.30640
H648        H  0.76255843  0.10102472  0.84100409     0.32320
H649        H  0.76395461  0.09195536  0.69175968     0.31290
H650        H  0.68687984  0.33252454  0.83142766     0.35290
H651        H  0.64382996  0.27291931  0.80583465     0.28020
H652        H  0.90657649  0.24572920  0.75514645     0.32260
H653        H  0.81457003  0.12876614  0.66498183     0.35110
H654        H  0.77022567  0.21256233  0.89020704     0.27720
H655        H  0.64432380  0.30768206  0.77428457     0.40590
H656        H  0.74554791  0.39524854  0.72201437     0.30640
H657        H  0.78084826  0.39839487  0.78806898     0.38260
H658        H  0.74350365  0.09785140  0.72855283     0.30110
H659        H  0.79147813  0.28934759  0.63445918     0.30170
H660        H  0.88816141  0.22045704  0.72341934     0.30440
Zr661      Zr  0.26272440  0.75272313  0.67723358     2.17510
O662        O  0.28013703  0.78232632  0.61736609    -0.51920
O663        O  0.21813933  0.70483340  0.65336232    -0.75120
O664        O  0.30246100  0.70366846  0.64480242    -0.81910
O665        O  0.20314481  0.84649931  0.69548393    -0.83650
O666        O  0.33448503  0.66824736  0.68849220    -0.79280
O667        O  0.22428597  0.80598335  0.64900911    -0.90910
O668        O  0.19369700  0.66863160  0.70189443    -0.76870
O669        O  0.26690619  0.69054707  0.71640009    -0.86360
O670        O  0.21543010  0.75656203  0.71980542    -0.86050
O671        O  0.31841308  0.75952628  0.70650918    -0.72810
O672        O  0.26941891  0.81913480  0.71034706    -0.84950
Zr673      Zr  0.28129433  0.76788465  0.82365504     2.26420
Zr674      Zr  0.32107849  0.69840731  0.74752850     2.06270
Zr675      Zr  0.22295515  0.82131929  0.75411978     2.10050
Zr676      Zr  0.21996828  0.69458104  0.75875736     1.78760
O677        O  0.22279944  0.90014067  0.75170768    -0.93750
O678        O  0.23003447  0.61673034  0.76177619    -0.41560
O679        O  0.22624951  0.75960504  0.79370238    -0.78190
O680        O  0.27429980  0.70070336  0.79107216    -0.96880
O681        O  0.32794517  0.76372559  0.78055587    -0.90180
O682        O  0.27752057  0.82944543  0.78391016    -0.93020
C683        C  0.19651382  0.67750992  0.66731865     1.00730
C684        C  0.20540568  0.83675613  0.66159977     1.13660
C685        C  0.32557988  0.67573732  0.65506299     1.04440
O686        O  0.31962186  0.62009750  0.75620917    -0.95180
O687        O  0.35010391  0.68198347  0.80427458    -0.90920
O688        O  0.32644062  0.72176131  0.85024578    -0.84070
C689        C  0.34808992  0.69378516  0.83779059     1.11080
O690        O  0.34181280  0.85989141  0.68301151    -0.97150
Zr691      Zr  0.32429474  0.82478548  0.74072274     1.88940
O692        O  0.32541446  0.81828525  0.84593142    -0.73800
O693        O  0.38397390  0.70112531  0.73843217    -0.53060
O694        O  0.38537713  0.80871479  0.72855813    -0.97740
O695        O  0.31972978  0.90357862  0.74119756    -0.54960
O696        O  0.35558581  0.84338054  0.79595611    -0.74320
C697        C  0.35073985  0.83922593  0.83071819     0.98030
O698        O  0.26232155  0.73427735  0.88142494    -0.63140
O699        O  0.16025184  0.81421853  0.76255209    -0.57940
O700        O  0.23867523  0.81338571  0.85715778    -0.94620
O701        O  0.20503972  0.84694372  0.81380014    -0.93050
O702        O  0.15782423  0.70737083  0.76663073    -0.93410
O703        O  0.19686842  0.66071322  0.81459744    -0.92190
C704        C  0.21346527  0.83887192  0.84733182     1.16870
H705        H  0.19333570  0.75701621  0.70710250     0.32810
H706        H  0.27632479  0.67673362  0.80833540     0.43670
H707        H  0.27827713  0.85586011  0.79777109     0.37190
H708        H  0.33681564  0.75826923  0.68840742     0.33670
H709        H  0.20710930  0.60372236  0.75622856     0.25460
H710        H  0.39110569  0.67059263  0.73525793     0.31400
H711        H  0.39834491  0.83418413  0.73745032     0.37310
H712        H  0.14651164  0.68047258  0.75826645     0.31770
H713        H  0.15103905  0.84409179  0.76051347     0.30640
H714        H  0.19927912  0.90862093  0.76017809     0.32320
H715        H  0.34236380  0.91357023  0.75095283     0.31290
H716        H  0.20660569  0.67803330  0.83486131     0.35290
H717        H  0.23666047  0.73695072  0.88124026     0.28020
H718        H  0.27401133  0.75987963  0.59930794     0.32260
H719        H  0.36316514  0.87644070  0.68868052     0.35110
H720        H  0.15164745  0.79946808  0.74035807     0.27720
H721        H  0.26600219  0.70295357  0.87776998     0.40590
H722        H  0.30674968  0.61516629  0.77951838     0.30640
H723        H  0.24444975  0.61046764  0.73987191     0.38260
H724        H  0.30274511  0.91039956  0.76076909     0.30110
H725        H  0.38743400  0.71484660  0.71389042     0.30170
H726        H  0.30592351  0.78280749  0.61778442     0.30440
Zr727      Zr  0.25565448  0.27532291  0.82510320     2.17510
O728        O  0.26839475  0.25960295  0.88973016    -0.51920
O729        O  0.20737404  0.32442003  0.84136515    -0.75120
O730        O  0.30024712  0.32630805  0.85198163    -0.81910
O731        O  0.19735391  0.17574014  0.81595379    -0.83650
O732        O  0.33483192  0.35151751  0.80558031    -0.79280
O733        O  0.22081610  0.22012856  0.85874996    -0.90910
O734        O  0.17676910  0.34499474  0.79048311    -0.76870
O735        O  0.25640214  0.33254424  0.78041189    -0.86360
O736        O  0.20796156  0.26375424  0.78398146    -0.86050
O737        O  0.31038862  0.26588127  0.79359443    -0.72810
O738        O  0.26447230  0.20578672  0.79625174    -0.84950
Zr739      Zr  0.27044413  0.24527991  0.67920513     2.26420
Zr740      Zr  0.31059791  0.32371279  0.74899947     2.06270
Zr741      Zr  0.21641310  0.19568983  0.75512962     2.10050
Zr742      Zr  0.20909182  0.32049151  0.73897462     1.78760
O743        O  0.21605899  0.11731730  0.76308395    -0.93750
O744        O  0.21303511  0.39919476  0.73590756    -0.41560
O745        O  0.21610136  0.25226711  0.71017359    -0.78190
O746        O  0.26280411  0.31483333  0.70720174    -0.96880
O747        O  0.31887758  0.25602311  0.71919441    -0.90180
O748        O  0.26984583  0.18716313  0.72281719    -0.93020
C749        C  0.18145267  0.34350704  0.82515746     1.00730
C750        C  0.20110767  0.18838306  0.84909498     1.13660
C751        C  0.32667668  0.34870516  0.83976185     1.04440
O752        O  0.30470739  0.40219708  0.74649210    -0.95180
O753        O  0.32680991  0.34579378  0.68782418    -0.90920
O754        O  0.30794179  0.29546069  0.64731022    -0.84070
C755        C  0.32349350  0.33056133  0.65546969     1.11080
O756        O  0.34153107  0.16650170  0.81927014    -0.97150
Zr757      Zr  0.31802695  0.19828871  0.76263683     1.88940
O758        O  0.31513008  0.19648481  0.65660147    -0.73800
O759        O  0.37389096  0.32376069  0.74406317    -0.53060
O760        O  0.37909309  0.21718563  0.77102493    -0.97740
O761        O  0.31212984  0.11979641  0.76688517    -0.54960
O762        O  0.34725060  0.17538433  0.70627789    -0.74320
C763        C  0.34121653  0.17684549  0.67142585     0.98030
O764        O  0.24603937  0.26758504  0.61955995    -0.63140
O765        O  0.15367695  0.20258023  0.74634664    -0.57940
O766        O  0.22789824  0.19687954  0.65076132    -0.94620
O767        O  0.19726189  0.16540280  0.69745478    -0.93050
O768        O  0.14876454  0.30129311  0.72645882    -0.93410
O769        O  0.19045769  0.35210907  0.68030272    -0.92190
C770        C  0.20375582  0.17162741  0.66311028     1.16870
H771        H  0.18609500  0.26301283  0.79710681     0.32810
H772        H  0.26244427  0.33750530  0.68861434     0.43670
H773        H  0.27098056  0.15948396  0.71084767     0.37190
H774        H  0.32953362  0.26855592  0.81062440     0.33670
H775        H  0.18863794  0.40944236  0.73755574     0.25460
H776        H  0.38073452  0.35435141  0.74732909     0.31400
H777        H  0.39239260  0.19286153  0.76044748     0.37310
H778        H  0.13652102  0.32926329  0.72288779     0.31770
H779        H  0.14446537  0.17272604  0.74813412     0.30640
H780        H  0.19121468  0.10911041  0.76111338     0.32320
H781        H  0.31307754  0.10963496  0.74117916     0.31290
H782        H  0.18711675  0.32706344  0.66400708     0.35290
H783        H  0.22254255  0.27839940  0.62582339     0.28020
H784        H  0.26391414  0.28694165  0.90282350     0.32260
H785        H  0.36109428  0.14776480  0.81156569     0.35110
H786        H  0.14468958  0.21735112  0.76835974     0.27720
H787        H  0.25811644  0.29384351  0.61037219     0.40590
H788        H  0.29198209  0.40974620  0.76923602     0.30640
H789        H  0.22360714  0.40753029  0.75962132     0.38260
H790        H  0.28771052  0.11493451  0.77463686     0.30110
H791        H  0.38223409  0.30863371  0.76662162     0.30170
H792        H  0.29393602  0.25534589  0.89100098     0.30440
Zr793      Zr  0.34652012  0.73985370  0.25897572     2.17510
O794        O  0.39626425  0.70045192  0.23448793    -0.51920
O795        O  0.37655582  0.78291814  0.30372293    -0.75120
O796        O  0.38236607  0.78866463  0.22251875    -0.81910
O797        O  0.32267054  0.65456076  0.32867794    -0.83650
O798        O  0.34482830  0.83114217  0.18968205    -0.79280
O799        O  0.36948375  0.68838657  0.30245059    -0.90910
O800        O  0.33581004  0.82740388  0.32851316    -0.76870
O801        O  0.31667737  0.80710112  0.25576173    -0.86360
O802        O  0.30770080  0.74217084  0.31008255    -0.86050
O803        O  0.31762431  0.73867003  0.20070320    -0.72810
O804        O  0.30929476  0.67801282  0.25323055    -0.84950
Zr805      Zr  0.20851381  0.74800365  0.24417526     2.26420
Zr806      Zr  0.28625945  0.80533908  0.19902587     2.06270
Zr807      Zr  0.26964161  0.68217872  0.30369007     2.10050
Zr808      Zr  0.27790880  0.80898794  0.30646347     1.78760
O809        O  0.26579134  0.60387927  0.29827918    -0.93750
O810        O  0.27963392  0.88695781  0.29588374    -0.41560
O811        O  0.23864563  0.74915158  0.30177927    -0.78190
O812        O  0.24627720  0.80968052  0.24963067    -0.96880
O813        O  0.24763679  0.74562798  0.19319398    -0.90180
O814        O  0.23891435  0.68076255  0.24715321    -0.93020
C815        C  0.36721375  0.81369784  0.32475802     1.00730
C816        C  0.35517429  0.66170732  0.32495818     1.13660
C817        C  0.37541088  0.82018072  0.20037005     1.04440
O818        O  0.28651930  0.88412486  0.19782272    -0.95180
O819        O  0.23468540  0.83046369  0.16901563    -0.90920
O820        O  0.18781336  0.79747303  0.19543671    -0.84070
C821        C  0.20203296  0.82377952  0.17199148     1.11080
O822        O  0.32859264  0.64127879  0.17134380    -0.97150
Zr823      Zr  0.27811019  0.67896469  0.19627612     1.88940
O824        O  0.17994720  0.70045158  0.20192449    -0.73800
O825        O  0.29674299  0.80037252  0.13299702    -0.53060
O826        O  0.28217857  0.69397732  0.13032577    -0.97740
O827        O  0.27468665  0.60046227  0.20336062    -0.54960
O828        O  0.22132651  0.66075420  0.17247013    -0.74320
C829        C  0.18982958  0.67232498  0.17861399     0.98030
O830        O  0.15717061  0.78804834  0.26402008    -0.63140
O831        O  0.26433845  0.68050414  0.37060400    -0.57940
O832        O  0.17389044  0.70594743  0.28997887    -0.94620
O833        O  0.21181066  0.66520609  0.32406470    -0.93050
O834        O  0.27537489  0.79770725  0.37293541    -0.93410
O835        O  0.22882243  0.84564376  0.33489364    -0.92190
C836        C  0.18111889  0.67799744  0.31574027     1.16870
H837        H  0.31996970  0.74031474  0.33320745     0.32810
H838        H  0.23273657  0.83599772  0.24770991     0.43670
H839        H  0.22307799  0.65649717  0.24709396     0.37190
H840        H  0.33452149  0.73768688  0.18101317     0.33670
H841        H  0.28504807  0.89918088  0.32026339     0.25460
H842        H  0.29870765  0.83081970  0.12434092     0.31400
H843        H  0.27080202  0.66900728  0.11853871     0.37310
H844        H  0.28583010  0.82411910  0.38334640     0.31770
H845        H  0.26958411  0.65021755  0.37802649     0.30640
H846        H  0.26033730  0.59327499  0.32349268     0.32320
H847        H  0.26478882  0.59031283  0.17984720     0.31290
H848        H  0.20833975  0.83638687  0.32046906     0.35290
H849        H  0.15769132  0.78648904  0.29126901     0.28020
H850        H  0.41699097  0.71691792  0.24241036     0.32260
H851        H  0.31989281  0.62485711  0.15003513     0.35110
H852        H  0.28438027  0.69741127  0.37967763     0.27720
H853        H  0.16242302  0.81877787  0.25825662     0.40590
H854        H  0.27022110  0.89260015  0.21756836     0.30640
H855        H  0.30097423  0.89191472  0.28110296     0.38260
H856        H  0.25598230  0.59527638  0.22165071     0.30110
H857        H  0.32059432  0.78854043  0.13057511     0.30170
H858        H  0.39514663  0.70508426  0.20746953     0.30440
Zr859      Zr  0.69103381  0.25075891  0.25942188     2.17510
O860        O  0.63684872  0.21741312  0.28037898    -0.51920
O861        O  0.66369538  0.30413533  0.22003017    -0.75120
O862        O  0.66301884  0.29325276  0.30693448    -0.81910
O863        O  0.70349060  0.16833802  0.18471142    -0.83650
O864        O  0.70572583  0.33130082  0.33532316    -0.79280
O865        O  0.66140176  0.20352259  0.21692246    -0.90910
O866        O  0.70625924  0.34222263  0.19060499    -0.76870
O867        O  0.72677614  0.31348235  0.26360585    -0.86360
O868        O  0.72684958  0.25344823  0.20591042    -0.86050
O869        O  0.72330340  0.24059455  0.31519598    -0.72810
O870        O  0.72300795  0.18408220  0.25994717    -0.84950
Zr871      Zr  0.83047338  0.23977009  0.26759704     2.26420
Zr872      Zr  0.76075229  0.30231934  0.31775113     2.06270
Zr873      Zr  0.76025499  0.18856362  0.20741420     2.10050
Zr874      Zr  0.76293050  0.31516579  0.21062618     1.78760
O875        O  0.75995545  0.10976777  0.20793229    -0.93750
O876        O  0.76514148  0.39260543  0.22198074    -0.41560
O877        O  0.79734926  0.25038665  0.21184819    -0.78190
O878        O  0.79794742  0.30646558  0.26512638    -0.96880
O879        O  0.79334753  0.23697188  0.31995658    -0.90180
O880        O  0.79365919  0.17778739  0.26214869    -0.93020
C881        C  0.67415776  0.33313550  0.19710113     1.00730
C882        C  0.67167831  0.17751429  0.19194333     1.13660
C883        C  0.67397666  0.32115745  0.33001552     1.04440
O884        O  0.76887928  0.38038921  0.31949203    -0.95180
O885        O  0.81509318  0.31947377  0.34621681    -0.90920
O886        O  0.85804356  0.28349789  0.31685235    -0.84070
C887        C  0.84704568  0.30926838  0.34224751     1.11080
O888        O  0.70406689  0.14213934  0.33992012    -0.97150
Zr889      Zr  0.75667234  0.17552879  0.31479166     1.88940
O890        O  0.85558248  0.18628543  0.30922600    -0.73800
O891        O  0.75415359  0.29377978  0.38426993    -0.53060
O892        O  0.75480910  0.18433805  0.38136572    -0.97740
O893        O  0.75492638  0.09777277  0.30427545    -0.54960
O894        O  0.81147079  0.14897619  0.33708381    -0.74320
C895        C  0.84360863  0.15780687  0.33195593     0.98030
O896        O  0.88418621  0.27311282  0.24522384    -0.63140
O897        O  0.76050950  0.19552365  0.14048164    -0.57940
O898        O  0.85875339  0.19580534  0.21941518    -0.94620
O899        O  0.81614839  0.16875001  0.18281957    -0.93050
O900        O  0.76407702  0.30647069  0.14408269    -0.93410
O901        O  0.81317157  0.34956256  0.18163149    -0.92190
C902        C  0.84817879  0.17437542  0.19117567     1.16870
H903        H  0.71296061  0.25524432  0.18378067     0.32810
H904        H  0.81356936  0.33079850  0.26717111     0.43670
H905        H  0.80735277  0.15163607  0.26048095     0.37190
H906        H  0.70776415  0.23958150  0.33611135     0.33670
H907        H  0.76121319  0.40642212  0.19754329     0.25460
H908        H  0.74883140  0.32319189  0.39317848     0.31400
H909        H  0.76428411  0.15695789  0.39178216     0.37310
H910        H  0.75361002  0.33343489  0.13396145     0.31770
H911        H  0.74997156  0.16842716  0.13149652     0.30640
H912        H  0.76153217  0.10192881  0.18164515     0.32320
H913        H  0.76348184  0.08434432  0.32750447     0.31290
H914        H  0.83345231  0.33341351  0.19161925     0.35290
H915        H  0.88159651  0.27460513  0.21810429     0.28020
H916        H  0.61873080  0.23999867  0.27712422     0.32260
H917        H  0.71202089  0.12173905  0.35946964     0.35110
H918        H  0.74323295  0.21831528  0.13442943     0.27720
H919        H  0.88271167  0.30372012  0.25277453     0.40590
H920        H  0.75057819  0.39242675  0.30311067     0.30640
H921        H  0.74354956  0.39877492  0.23586708     0.38260
H922        H  0.77365636  0.09219899  0.28622091     0.30110
H923        H  0.73227437  0.27739318  0.38801008     0.30170
H924        H  0.63941433  0.21364633  0.30737454     0.30440
Zr925      Zr  0.35481324  0.24801034  0.26342438     2.17510
O926        O  0.41756189  0.26001061  0.26528768    -0.51920
O927        O  0.37692742  0.19451502  0.21964156    -0.75120
O928        O  0.38208543  0.21482133  0.31876997    -0.81910
O929        O  0.34547508  0.34062058  0.19479467    -0.83650
O930        O  0.33862041  0.18207876  0.35039367    -0.79280
O931        O  0.38412081  0.30667958  0.23325576    -0.90910
O932        O  0.33113009  0.16365988  0.19085711    -0.76870
O933        O  0.31546214  0.18905339  0.26830875    -0.86360
O934        O  0.31748355  0.25370205  0.21071016    -0.86050
O935        O  0.32457441  0.26258529  0.31982975    -0.72810
O936        O  0.32626194  0.31779141  0.26381959    -0.84950
Zr937      Zr  0.21668997  0.27566751  0.27404819     2.26420
Zr938      Zr  0.28397063  0.20413989  0.32346416     2.06270
Zr939      Zr  0.28705371  0.32170674  0.21265805     2.10050
Zr940      Zr  0.27801950  0.19521677  0.21598590     1.78760
O941        O  0.29158500  0.40028874  0.21405661    -0.93750
O942        O  0.27073840  0.11811212  0.22858691    -0.41560
O943        O  0.24699187  0.26292878  0.21728001    -0.78190
O944        O  0.24546827  0.20627819  0.27154809    -0.96880
O945        O  0.25527217  0.27251685  0.32539262    -0.90180
O946        O  0.25652675  0.33447124  0.26834832    -0.93020
C947        C  0.36398814  0.16829874  0.19607372     1.00730
C948        C  0.37609292  0.33292903  0.20723244     1.13660
C949        C  0.37069814  0.19243526  0.34647573     1.04440
O950        O  0.27914897  0.12568483  0.32086464    -0.95180
O951        O  0.22834487  0.18946847  0.35026185    -0.90920
O952        O  0.18705463  0.22853990  0.31953258    -0.84070
C953        C  0.19682454  0.20088295  0.34447858     1.11080
O954        O  0.35150958  0.36143343  0.33663998    -0.97150
Zr955      Zr  0.29547749  0.33053566  0.31940144     1.88940
O956        O  0.19743352  0.32704125  0.31947030    -0.73800
O957        O  0.28096075  0.20491113  0.39056767    -0.53060
O958        O  0.30314934  0.31919375  0.38553064    -0.97740
O959        O  0.29843177  0.40882158  0.31000553    -0.54960
O960        O  0.24397677  0.35764702  0.34781402    -0.74320
C961        C  0.21140348  0.35151389  0.34353192     0.98030
O962        O  0.15907171  0.25030107  0.25639146    -0.63140
O963        O  0.28737142  0.31914695  0.14565269    -0.57940
O964        O  0.18805244  0.32482353  0.22802512    -0.94620
O965        O  0.23089749  0.34988229  0.19051362    -0.93050
O966        O  0.27492615  0.20685108  0.14957628    -0.93410
O967        O  0.22452843  0.16649494  0.19000654    -0.92190
C968        C  0.19854393  0.34729718  0.19973360     1.16870
H969        H  0.33083546  0.25194407  0.18823020     0.32810
H970        H  0.22845753  0.18339229  0.27390273     0.43670
H971        H  0.24432330  0.36181910  0.26725962     0.37190
H972        H  0.33947900  0.26399722  0.34112479     0.33670
H973        H  0.27258095  0.10433193  0.20422571     0.25460
H974        H  0.28684320  0.17507632  0.39877403     0.31400
H975        H  0.29683276  0.34716774  0.39670916     0.37310
H976        H  0.28034002  0.17829854  0.13893521     0.31770
H977        H  0.29466035  0.34852367  0.13758756     0.30640
H978        H  0.28983089  0.40971670  0.18794294     0.32320
H979        H  0.29479906  0.42101274  0.33478579     0.31290
H980        H  0.20581100  0.18458376  0.20055848     0.35290
H981        H  0.14300668  0.27459734  0.26148884     0.28020
H982        H  0.42832053  0.23094954  0.26727622     0.32260
H983        H  0.34712130  0.37838544  0.35909866     0.35110
H984        H  0.30735178  0.30036989  0.13936020     0.27720
H985        H  0.15965480  0.24819933  0.22921706     0.40590
H986        H  0.30307171  0.11544952  0.31565101     0.30640
H987        H  0.29231221  0.10926354  0.24160289     0.38260
H988        H  0.27704520  0.41677479  0.29628701     0.30110
H989        H  0.30085088  0.22285719  0.39852671     0.30170
H990        H  0.42225849  0.27404179  0.28909865     0.30440
Zr991      Zr  0.76720616  0.73828719  0.65972640     2.17510
O992        O  0.75627633  0.71491848  0.59681614    -0.51920
O993        O  0.81069551  0.79096203  0.63626404    -0.75120
O994        O  0.72019906  0.77746375  0.62838749    -0.81910
O995        O  0.82388592  0.63846390  0.67329637    -0.83650
O996        O  0.68259003  0.80179333  0.67189330    -0.79280
O997        O  0.80463346  0.68673335  0.62989624    -0.90910
O998        O  0.83766092  0.81979913  0.68543559    -0.76870
O999        O  0.76025049  0.79788995  0.69985817    -0.86360
O1000       O  0.81500535  0.73391729  0.70116774    -0.86050
O1001       O  0.71301888  0.72444292  0.69116740    -0.72810
O1002       O  0.76245540  0.66904282  0.69105395    -0.84950
Zr1003     Zr  0.75076933  0.71385588  0.80777343     2.26420
Zr1004     Zr  0.70679232  0.78379619  0.73211481     2.06270
Zr1005     Zr  0.80971295  0.66622184  0.73334562     2.10050
Zr1006     Zr  0.80829397  0.79324782  0.74124303     1.78760
O1007       O  0.80847778  0.58755255  0.73827662    -0.93750
O1008       O  0.79639198  0.87073701  0.74084438    -0.41560
O1009       O  0.80446293  0.72563461  0.77464517    -0.78190
O1010       O  0.75479174  0.78260927  0.77476373    -0.96880
O1011       O  0.70335887  0.71661405  0.76523634    -0.90180
O1012       O  0.75688659  0.65414167  0.76700332    -0.93020
C1013       C  0.83432628  0.81525970  0.65042641     1.00730
C1014       C  0.82148667  0.65287055  0.64012838     1.13660
C1015       C  0.69159894  0.79546189  0.63832930     1.04440
O1016       O  0.70433585  0.86254613  0.73201163    -0.95180
O1017       O  0.68191312  0.80519898  0.79036799    -0.90920
O1018       O  0.70863528  0.76670075  0.83607158    -0.84070
C1019       C  0.68594142  0.79519816  0.82448037     1.11080
O1020       O  0.69233715  0.62372679  0.66725313    -0.97150
Zr1021     Zr  0.70956078  0.65753239  0.72462351     1.88940
O1022       O  0.70454643  0.66311704  0.82767407    -0.73800
O1023       O  0.64429418  0.77169475  0.72896308    -0.53060
O1024       O  0.64774058  0.66045623  0.70954875    -0.97740
O1025       O  0.72261224  0.58033596  0.72976011    -0.54960
O1026       O  0.67507374  0.63869732  0.77794882    -0.74320
C1027       C  0.67894940  0.64268442  0.81268695     0.98030
O1028       O  0.76623547  0.72935425  0.87131056    -0.63140
O1029       O  0.87281719  0.67041468  0.72657248    -0.57940
O1030       O  0.80130905  0.67144545  0.83671039    -0.94620
O1031       O  0.83655166  0.64685754  0.79110138    -0.93050
O1032       O  0.87028793  0.78406373  0.75324030    -0.93410
O1033       O  0.82787634  0.82718546  0.79764184    -0.92190
C1034       C  0.82936581  0.65158466  0.82520183     1.16870
H1035       H  0.83692729  0.73514281  0.68815230     0.32810
H1036       H  0.75248922  0.80616638  0.79178210     0.43670
H1037       H  0.75762610  0.62712667  0.78071212     0.37190
H1038       H  0.69412921  0.72311890  0.67375058     0.33670
H1039       H  0.81956496  0.88447705  0.73822168     0.25460
H1040       H  0.63351103  0.80056516  0.73164612     0.31400
H1041       H  0.64295528  0.69106127  0.70292880     0.37310
H1042       H  0.88109612  0.81153845  0.74476131     0.31770
H1043       H  0.87750699  0.67352693  0.69986209     0.30640
H1044       H  0.83305371  0.57859542  0.73508923     0.32320
H1045       H  0.70236510  0.56568735  0.71860994     0.31290
H1046       H  0.82114003  0.80652253  0.81750015     0.35290
H1047       H  0.76858767  0.76123812  0.87216747     0.28020
H1048       H  0.75835717  0.74112813  0.58092273     0.32260
H1049       H  0.70203552  0.64281928  0.64765560     0.35110
H1050       H  0.87902130  0.69895018  0.73667878     0.27720
H1051       H  0.74506668  0.72268344  0.88590585     0.40590
H1052       H  0.71469037  0.87158967  0.70813577     0.30640
H1053       H  0.78476635  0.87671175  0.71697162     0.38260
H1054       H  0.72060289  0.57315858  0.75633653     0.30110
H1055       H  0.63824641  0.75536513  0.75172293     0.30170
H1056       H  0.73137438  0.70668063  0.59588284     0.30440
C1057       C  0.90228962  0.13090884  0.18166356    -0.20890
C1058       C  0.87407584  0.15366652  0.16630095    -0.07460
C1059       C  0.86969965  0.15363661  0.12739947     0.13410
C1060       C  0.89299651  0.13038338  0.10531278    -0.20940
C1061       C  0.92090733  0.10721481  0.12063855    -0.07460
C1062       C  0.92563921  0.10758014  0.15946929     0.13400
C1063       C  0.95445985  0.08227413  0.17799445    -0.24290
H1064       H  0.90554731  0.13042455  0.21131967     0.14690
H1065       H  0.88959284  0.13067472  0.07566930     0.14720
C1066       C  0.84088659  0.17858433  0.10854335    -0.24240
H1067       H  0.95239959  0.08322123  0.20848656     0.04930
H1068       H  0.98002413  0.09633443  0.17034063     0.08150
H1069       H  0.95331521  0.04785573  0.16969346     0.08150
H1070       H  0.84069096  0.21262257  0.11793657     0.08140
H1071       H  0.81561590  0.16285547  0.11459029     0.08140
H1072       H  0.84401562  0.17914576  0.07812444     0.04910
C1073       C  0.15207731  0.82562143  0.12922404    -0.20890
C1074       C  0.17973555  0.84762043  0.14561282    -0.07460
C1075       C  0.18661849  0.89121569  0.13511457     0.13410
C1076       C  0.16503205  0.91182704  0.10926119    -0.20940
C1077       C  0.13663880  0.89036084  0.09387792    -0.07460
C1078       C  0.13041264  0.84634689  0.10340867     0.13400
C1079       C  0.10138688  0.82071294  0.08626265    -0.24290
H1080       H  0.14747927  0.79196245  0.13658660     0.14690
H1081       H  0.16944214  0.94561974  0.10223087     0.14720
C1082       C  0.21562478  0.91710188  0.15203546    -0.24240
H1083       H  0.10260742  0.78601131  0.09452019     0.04930
H1084       H  0.10325102  0.82284017  0.05577045     0.08150
H1085       H  0.07574685  0.83295630  0.09549699     0.08150
H1086       H  0.24122502  0.90409464  0.14336438     0.08140
H1087       H  0.21335975  0.91600985  0.18251897     0.08140
H1088       H  0.21480436  0.95163178  0.14308845     0.04910
C1089       C  0.19399045  0.15022181  0.91072727    -0.20890
C1090       C  0.17969276  0.16455244  0.87693775    -0.07460
C1091       C  0.14482773  0.15334729  0.86858497     0.13410
C1092       C  0.12604376  0.12710755  0.89285156    -0.20940
C1093       C  0.13999439  0.11204280  0.92633339    -0.07460
C1094       C  0.17450618  0.12392244  0.93558660     0.13400
C1095       C  0.19053847  0.10982700  0.97160499    -0.24290
H1096       H  0.22059629  0.15880795  0.91730862     0.14690
H1097       H  0.09978963  0.11803402  0.88521299     0.14720
C1098       C  0.12638413  0.16943387  0.83434316    -0.24240
H1099       H  0.21713131  0.12329674  0.97497252     0.04930
H1100       H  0.19256737  0.07399956  0.97287913     0.08150
H1101       H  0.17422310  0.12120529  0.99479827     0.08150
H1102       H  0.13719083  0.15312617  0.80993444     0.08140
H1103       H  0.12910933  0.20511638  0.83174917     0.08140
H1104       H  0.09807417  0.16206587  0.83493735     0.04910
C1105       C  0.14240924  0.85946474  0.91883708    -0.20890
C1106       C  0.14015335  0.90487694  0.91777539    -0.07460
C1107       C  0.16432746  0.92837535  0.89580340     0.13410
C1108       C  0.18918900  0.90597443  0.87469377    -0.20940
C1109       C  0.19143615  0.86055288  0.87559067    -0.07460
C1110       C  0.16789302  0.83712383  0.89834511     0.13400
C1111       C  0.16889381  0.78846995  0.90020597    -0.24290
H1112       H  0.12419554  0.84138858  0.93589729     0.14690
H1113       H  0.20657515  0.92402780  0.85665187     0.14720
C1114       C  0.16304348  0.97712384  0.89329489    -0.24240
H1115       H  0.14801258  0.77512087  0.91823627     0.04930
H1116       H  0.19427696  0.77778201  0.91170884     0.08150
H1117       H  0.16544707  0.77503670  0.87225363     0.08150
H1118       H  0.16848293  0.99114727  0.92064510     0.08140
H1119       H  0.13689399  0.98783425  0.88376253     0.08140
H1120       H  0.18269064  0.99021439  0.87363562     0.04910
C1121       C  0.92416796  0.15323252  0.90681817    -0.20890
C1122       C  0.91392685  0.11303640  0.92248749    -0.07460
C1123       C  0.88200902  0.09508432  0.91066552     0.13410
C1124       C  0.86188925  0.11710475  0.88377059    -0.20940
C1125       C  0.87230775  0.15699300  0.86771221    -0.07460
C1126       C  0.90395724  0.17538698  0.87996841     0.13400
C1127       C  0.91636147  0.21880222  0.86576278    -0.24290
H1128       H  0.94847253  0.16756268  0.91561112     0.14690
H1129       H  0.83771618  0.10251679  0.87490215     0.14720
C1130       C  0.86941977  0.05190365  0.92499097    -0.24240
H1131       H  0.94076604  0.22904768  0.87951250     0.04930
H1132       H  0.89625520  0.24386644  0.87098368     0.08150
H1133       H  0.92177700  0.21718515  0.83579339     0.08150
H1134       H  0.86491337  0.05343055  0.95512622     0.08140
H1135       H  0.88904413  0.02664618  0.91878322     0.08140
H1136       H  0.84448641  0.04222543  0.91200973     0.04910
C1137       C  0.92099716  0.86368439  0.11880714    -0.20890
C1138       C  0.91204184  0.90666237  0.10907514    -0.07460
C1139       C  0.88062924  0.92378912  0.12341514     0.13410
C1140       C  0.85968110  0.89789095  0.14707976    -0.20940
C1141       C  0.86933539  0.85537896  0.15754481    -0.07460
C1142       C  0.90043177  0.83807041  0.14267065     0.13400
C1143       C  0.91191298  0.79215175  0.15085594    -0.24290
H1144       H  0.94466620  0.84981531  0.10773739     0.14690
H1145       H  0.83586202  0.91134627  0.15815991     0.14720
C1146       C  0.86953421  0.96968698  0.11508636    -0.24240
H1147       H  0.93541979  0.78319875  0.13481656     0.04930
H1148       H  0.89082493  0.76924272  0.14361076     0.08150
H1149       H  0.91861930  0.78827267  0.18043675     0.08150
H1150       H  0.86465662  0.97390279  0.08512536     0.08140
H1151       H  0.89015874  0.99247922  0.12388430     0.08140
H1152       H  0.84514811  0.97824270  0.12976680     0.04910
C1153       C  0.62522403  0.12358843  0.18507097    -0.20890
C1154       C  0.64536751  0.15659610  0.16922448    -0.07460
C1155       C  0.64303156  0.16549525  0.13113021     0.13410
C1156       C  0.62154598  0.13988355  0.10947543    -0.20940
C1157       C  0.60271507  0.10482229  0.12457434    -0.07460
C1158       C  0.60409473  0.09716365  0.16329880     0.13400
C1159       C  0.58524497  0.06017974  0.18201710    -0.24290
H1160       H  0.62750742  0.11704358  0.21439998     0.14690
H1161       H  0.62021684  0.14704979  0.08018390     0.14720
C1162       C  0.66311143  0.20139805  0.11222003    -0.24240
H1163       H  0.59026042  0.05897609  0.21214303     0.04930
H1164       H  0.59444591  0.02914246  0.17059906     0.08150
H1165       H  0.55670496  0.06374523  0.17821683     0.08150
H1166       H  0.67876002  0.22081113  0.13149558     0.08140
H1167       H  0.64465486  0.22373933  0.09799413     0.08140
H1168       H  0.68099594  0.18745307  0.09147945     0.04910
C1169       C  0.40488313  0.07814704  0.13804647    -0.20890
C1170       C  0.43419531  0.09904345  0.12312498    -0.07460
C1171       C  0.44150501  0.14183005  0.13390864     0.13410
C1172       C  0.41890611  0.16300980  0.15859025    -0.20940
C1173       C  0.38855477  0.14286073  0.17238629    -0.07460
C1174       C  0.38193745  0.09939285  0.16224994     0.13400
C1175       C  0.35123318  0.07461438  0.17748298    -0.24290
H1176       H  0.39964270  0.04504904  0.13026020     0.14690
H1177       H  0.42457694  0.19590851  0.16646262     0.14720
C1178       C  0.47321028  0.16506491  0.11935264    -0.24240
H1179       H  0.35169664  0.04019575  0.16907672     0.04930
H1180       H  0.32661051  0.08897115  0.16701672     0.08150
H1181       H  0.35159087  0.07526668  0.20804860     0.08150
H1182       H  0.47177983  0.16778192  0.08886757     0.08140
H1183       H  0.49704389  0.14673635  0.12722451     0.08140
H1184       H  0.47536092  0.19821772  0.13053729     0.04910
C1185       C  0.42994972  0.82320874  0.16513536    -0.20890
C1186       C  0.40431097  0.84530709  0.18486617    -0.07460
C1187       C  0.40391521  0.89109033  0.18464017     0.13410
C1188       C  0.42709560  0.91355910  0.16170188    -0.20940
C1189       C  0.45030418  0.89126748  0.13906262    -0.07460
C1190       C  0.45311164  0.84572010  0.14212866     0.13400
C1191       C  0.47973344  0.81995002  0.12113577    -0.24290
H1192       H  0.43056295  0.78809974  0.16590592     0.14690
H1193       H  0.42549847  0.94859075  0.15978485     0.14720
C1194       C  0.37892766  0.91718421  0.20748217    -0.24240
H1195       H  0.49533285  0.80001580  0.14078747     0.04930
H1196       H  0.49824238  0.84060217  0.10539606     0.08150
H1197       H  0.46630817  0.79815765  0.10170179     0.08150
H1198       H  0.36246409  0.89686821  0.22586342     0.08140
H1199       H  0.36165066  0.93658506  0.18907629     0.08140
H1200       H  0.39385170  0.93952196  0.22519234     0.04910
C1201       C  0.67483464  0.82693811  0.88750678    -0.20890
C1202       C  0.66292595  0.81932895  0.85157881    -0.07460
C1203       C  0.62954259  0.83668423  0.84181883     0.13410
C1204       C  0.61013519  0.86111102  0.86729278    -0.20940
C1205       C  0.62217928  0.86931512  0.90298143    -0.07460
C1206       C  0.65532189  0.85154390  0.91306300     0.13400
C1207       C  0.67124306  0.85909356  0.95033684    -0.24290
H1208       H  0.70010481  0.81427975  0.89549842     0.14690
H1209       H  0.58489638  0.87374790  0.85914820     0.14720
C1210       C  0.61308809  0.82904725  0.80485101    -0.24240
H1211       H  0.69783809  0.84511148  0.95258781     0.04930
H1212       H  0.65516347  0.84343317  0.97214455     0.08150
H1213       H  0.67335784  0.89438358  0.95518606     0.08150
H1214       H  0.61184050  0.79378721  0.79977942     0.08140
H1215       H  0.62810713  0.84608998  0.78297720     0.08140
H1216       H  0.58602975  0.84172821  0.80330464     0.04910
C1217       C  0.59492714  0.12369749  0.87385566    -0.20890
C1218       C  0.60601283  0.08150190  0.88258587    -0.07460
C1219       C  0.63676143  0.06524192  0.86684979     0.13410
C1220       C  0.65682814  0.09241340  0.84409365    -0.20940
C1221       C  0.64697213  0.13559917  0.83686341    -0.07460
C1222       C  0.61495417  0.15100453  0.85089763     0.13400
C1223       C  0.60284531  0.19674645  0.84377679    -0.24290
H1224       H  0.57127561  0.13587074  0.88635110     0.14690
H1225       H  0.68117503  0.08038672  0.83304761     0.14720
C1226       C  0.64928224  0.01997841  0.87562771    -0.24240
H1227       H  0.57777506  0.20355097  0.85784749     0.04930
H1228       H  0.59884846  0.20220067  0.81379505     0.08150
H1229       H  0.62254312  0.21983294  0.85412388     0.08150
H1230       H  0.62941633  0.99617206  0.86687383     0.08140
H1231       H  0.65374091  0.01621521  0.90572316     0.08140
H1232       H  0.67407036  0.01251195  0.86125828     0.04910
C1233       C  0.41163609  0.84445531  0.85233392    -0.20890
C1234       C  0.37710968  0.85934842  0.85445070    -0.07460
C1235       C  0.36899699  0.89431281  0.87742800     0.13410
C1236       C  0.39548106  0.91273055  0.89875495    -0.20940
C1237       C  0.42993295  0.89740090  0.89711817    -0.07460
C1238       C  0.43814580  0.86288267  0.87364159     0.13400
C1239       C  0.47443620  0.84435418  0.87222103    -0.24290
H1240       H  0.41772664  0.81780107  0.83433076     0.14690
H1241       H  0.38928617  0.93913249  0.91698237     0.14720
C1242       C  0.33268612  0.91277557  0.87874077    -0.24240
H1243       H  0.47610327  0.81662093  0.85318653     0.04930
H1244       H  0.48232034  0.83274375  0.90009434     0.08150
H1245       H  0.49299408  0.86955453  0.86248316     0.08150
H1246       H  0.31416503  0.88767951  0.88874945     0.08140
H1247       H  0.32475591  0.92393925  0.85075378     0.08140
H1248       H  0.33102580  0.94079332  0.89747265     0.04910
C1249       C  0.14308543  0.14534697  0.58275912    -0.20890
C1250       C  0.13052475  0.10480317  0.59403899    -0.07460
C1251       C  0.14367928  0.08503501  0.62636584     0.13410
C1252       C  0.16846826  0.10701093  0.64745411    -0.20940
C1253       C  0.18085729  0.14824491  0.63682500    -0.07460
C1254       C  0.16799339  0.16745667  0.60372123     0.13400
C1255       C  0.17909994  0.21180613  0.59086422    -0.24290
H1256       H  0.13315389  0.15985006  0.55748421     0.14690
H1257       H  0.17806116  0.09195924  0.67263906     0.14720
C1258       C  0.13149939  0.04070692  0.63853924    -0.24240
H1259       H  0.16529632  0.22221407  0.56533928     0.04930
H1260       H  0.20736510  0.21163493  0.58461993     0.08150
H1261       H  0.17306556  0.23569838  0.61247235     0.08150
H1262       H  0.13763629  0.01678593  0.61694457     0.08140
H1263       H  0.10292348  0.04120323  0.64323346     0.08140
H1264       H  0.14432503  0.02986378  0.66449894     0.04910
C1265       C  0.12050770  0.13238066  0.37635381    -0.20890
C1266       C  0.13033777  0.12189027  0.41286747    -0.07460
C1267       C  0.16031278  0.14154477  0.42769673     0.13410
C1268       C  0.18012468  0.16962229  0.40522975    -0.20940
C1269       C  0.17088165  0.17870550  0.36832727    -0.07460
C1270       C  0.14023511  0.16045210  0.35400923     0.13400
C1271       C  0.12893092  0.16874927  0.31478851    -0.24290
H1272       H  0.09742626  0.11773093  0.36476278     0.14690
H1273       H  0.20362739  0.18384020  0.41629544     0.14720
C1274       C  0.17137297  0.13375973  0.46707935    -0.24240
H1275       H  0.10495832  0.15051922  0.30787255     0.04930
H1276       H  0.14978358  0.15863393  0.29552715     0.08150
H1277       H  0.12322613  0.20370297  0.31064048     0.08150
H1278       H  0.17858402  0.09926179  0.47139231     0.08140
H1279       H  0.14979894  0.14241352  0.48598528     0.08140
H1280       H  0.19438361  0.15359913  0.47440391     0.04910
C1281       C  0.88972046  0.85591191  0.56671842    -0.20890
C1282       C  0.91274330  0.88494717  0.58359113    -0.07460
C1283       C  0.90898410  0.89174764  0.62181826     0.13410
C1284       C  0.88299534  0.86940930  0.64203737    -0.20940
C1285       C  0.86015652  0.83941790  0.62568623    -0.07460
C1286       C  0.86398593  0.83272197  0.58706066     0.13400
C1287       C  0.84177113  0.80071633  0.56680480    -0.24290
H1288       H  0.89238060  0.85066425  0.53740459     0.14690
H1289       H  0.88076477  0.87554889  0.67122913     0.14720
C1290       C  0.93181122  0.92366420  0.64142030    -0.24240
H1291       H  0.84884964  0.79914129  0.53718965     0.04930
H1292       H  0.81396022  0.81037269  0.56836877     0.08150
H1293       H  0.84535637  0.76779731  0.57893116     0.08150
H1294       H  0.92934856  0.95613058  0.62811943     0.08140
H1295       H  0.95936880  0.91293478  0.64038408     0.08140
H1296       H  0.92448258  0.92669419  0.67086193     0.04910
C1297       C  0.91163141  0.12968337  0.40276365    -0.20890
C1298       C  0.90955953  0.08430346  0.40321018    -0.07460
C1299       C  0.88636443  0.06334733  0.37937772     0.13410
C1300       C  0.86555997  0.08829728  0.35565882    -0.20940
C1301       C  0.86812637  0.13351386  0.35486908    -0.07460
C1302       C  0.89115462  0.15466686  0.37881868     0.13400
C1303       C  0.89353197  0.20337655  0.37993824    -0.24290
H1304       H  0.92982103  0.14559414  0.42093913     0.14690
H1305       H  0.84731172  0.07253107  0.33745140     0.14720
C1306       C  0.88422496  0.01496408  0.37808778    -0.24240
H1307       H  0.91206324  0.21427806  0.40135782     0.04930
H1308       H  0.86756942  0.21732942  0.38624295     0.08150
H1309       H  0.90276036  0.21630182  0.35298298     0.08150
H1310       H  0.87466976  0.00256662  0.40507067     0.08140
H1311       H  0.91030062  0.00115730  0.37206513     0.08140
H1312       H  0.86602274  0.00420411  0.35633602     0.04910
C1313       C  0.13555306  0.91015847  0.62235544    -0.20890
C1314       C  0.14420496  0.91038798  0.58516109    -0.07460
C1315       C  0.17385729  0.88829282  0.57263687     0.13410
C1316       C  0.19394381  0.86491503  0.59831950    -0.20940
C1317       C  0.18440762  0.86307945  0.63578287    -0.07460
C1318       C  0.15450587  0.88619027  0.64782810     0.13400
C1319       C  0.14041185  0.88434166  0.68666877    -0.24290
H1320       H  0.11257496  0.92766636  0.63128753     0.14690
H1321       H  0.21679415  0.84758067  0.58900968     0.14720
C1322       C  0.18345261  0.88809807  0.53244677    -0.24240
H1323       H  0.11531367  0.90195274  0.68941318     0.04930
H1324       H  0.15883024  0.89975479  0.70594455     0.08150
H1325       H  0.13536347  0.85017703  0.69466748     0.08150
H1326       H  0.18900120  0.92163123  0.52278092     0.08140
H1327       H  0.16163303  0.87468083  0.51614640     0.08140
H1328       H  0.20698337  0.86808855  0.52738410     0.04910
C1329       C  0.91638450  0.83235216  0.34655545    -0.20890
C1330       C  0.88297310  0.85028860  0.34283865    -0.07460
C1331       C  0.87359608  0.88705801  0.36331149     0.13410
C1332       C  0.89753578  0.90379179  0.38788865    -0.20940
C1333       C  0.93087443  0.88601368  0.39194233    -0.07460
C1334       C  0.94057465  0.84959211  0.37100596     0.13400
C1335       C  0.97532947  0.82720230  0.37536677    -0.24290
H1336       H  0.92319884  0.80370250  0.33125731     0.14690
H1337       H  0.88991961  0.93099403  0.40437661     0.14720
C1338       C  0.83868740  0.90937088  0.35951517    -0.24240
H1339       H  0.97682166  0.79718944  0.35897054     0.04930
H1340       H  0.97947746  0.81796239  0.40470808     0.08150
H1341       H  0.99662744  0.84871868  0.36561561     0.08150
H1342       H  0.81767404  0.88856169  0.37082365     0.08140
H1343       H  0.83356005  0.91754927  0.33012837     0.08140
H1344       H  0.83752431  0.93977929  0.37529276     0.04910
C1345       C  0.12491256  0.59204131  0.14377886    -0.20890
C1346       C  0.11164318  0.61452638  0.11291838    -0.07460
C1347       C  0.12383682  0.65685309  0.10443248     0.13410
C1348       C  0.14910996  0.67522455  0.12701047    -0.20940
C1349       C  0.16282159  0.65203147  0.15694393    -0.07460
C1350       C  0.15068071  0.61026001  0.16573294     0.13400
C1351       C  0.16477536  0.58520489  0.19834316    -0.24290
H1352       H  0.11589688  0.55952533  0.15011257     0.14690
H1353       H  0.15876985  0.70753203  0.12093546     0.14720
C1354       C  0.11038550  0.68315871  0.07210512    -0.24240
H1355       H  0.15209497  0.55307787  0.20158591     0.04930
H1356       H  0.15997136  0.60380605  0.22370060     0.08150
H1357       H  0.19319768  0.57997984  0.19499020     0.08150
H1358       H  0.08157707  0.68573432  0.07358182     0.08140
H1359       H  0.11831934  0.66804096  0.04590035     0.08140
H1360       H  0.12122545  0.71644507  0.07165066     0.04910
C1361       C  0.15242112  0.40363305  0.11661041    -0.20890
C1362       C  0.11979626  0.41588089  0.13090062    -0.07460
C1363       C  0.11347049  0.40611129  0.16871452     0.13410
C1364       C  0.13919179  0.38396086  0.19031177    -0.20940
C1365       C  0.17188740  0.37156433  0.17574788    -0.07460
C1366       C  0.17820715  0.38225993  0.13796776     0.13400
C1367       C  0.21175414  0.37041666  0.11890826    -0.24290
H1368       H  0.15802562  0.41102951  0.08794863     0.14690
H1369       H  0.13365636  0.37639833  0.21894940     0.14720
C1370       C  0.07928245  0.41766102  0.18627849    -0.24240
H1371       H  0.21121560  0.37877958  0.08905532     0.04930
H1372       H  0.21633037  0.33500479  0.12145556     0.08150
H1373       H  0.23378291  0.38850966  0.13103320     0.08150
H1374       H  0.05765864  0.40191721  0.17128833     0.08140
H1375       H  0.07564313  0.45330781  0.18554495     0.08140
H1376       H  0.07810118  0.40672277  0.21553059     0.04910
C1377       C  0.16736227  0.38957678  0.87749758    -0.20890
C1378       C  0.15531281  0.36621783  0.84763206    -0.07460
C1379       C  0.11907709  0.36644093  0.83930625     0.13410
C1380       C  0.09589505  0.38880656  0.86224471    -0.20940
C1381       C  0.10800901  0.41096143  0.89298818    -0.07460
C1382       C  0.14447116  0.41227528  0.89996582     0.13400
C1383       C  0.16001953  0.43778012  0.93083316    -0.24290
H1384       H  0.19508863  0.39031186  0.88318364     0.14690
H1385       H  0.06814261  0.38790500  0.85681968     0.14720
C1386       C  0.10433559  0.34216892  0.80717553    -0.24240
H1387       H  0.18884408  0.43985895  0.92878463     0.04930
H1388       H  0.15414258  0.42130837  0.95733753     0.08150
H1389       H  0.14964825  0.47133819  0.93012485     0.08150
H1390       H  0.11251727  0.30769710  0.80874154     0.08140
H1391       H  0.11343837  0.35715774  0.78097373     0.08140
H1392       H  0.07541341  0.34312634  0.80681819     0.04910
C1393       C  0.94669020  0.61871139  0.16105151    -0.20890
C1394       C  0.93344972  0.60206440  0.12812657    -0.07460
C1395       C  0.89768443  0.60812014  0.11949087     0.13410
C1396       C  0.87703104  0.63236305  0.14247787    -0.20940
C1397       C  0.88990484  0.64941514  0.17502744    -0.07460
C1398       C  0.92515519  0.64233116  0.18490437     0.13400
C1399       C  0.93987348  0.65817404  0.22062489    -0.24290
H1400       H  0.97388866  0.61367529  0.16787382     0.14690
H1401       H  0.85011390  0.63809719  0.13470715     0.14720
C1402       C  0.88001913  0.58864789  0.08661734    -0.24240
H1403       H  0.96750720  0.64831060  0.22425558     0.04930
H1404       H  0.92474522  0.64420153  0.24396804     0.08150
H1405       H  0.93880984  0.69404127  0.22126498     0.08150
H1406       H  0.88581214  0.55347679  0.08579348     0.08140
H1407       H  0.88859490  0.60584521  0.06120737     0.08140
H1408       H  0.85121767  0.59200474  0.08766061     0.04910
C1409       C  0.91758291  0.61263109  0.86624672    -0.20890
C1410       C  0.90751915  0.58314571  0.89396540    -0.07460
C1411       C  0.87101763  0.57844385  0.90059687     0.13410
C1412       C  0.84621386  0.60284416  0.87976806    -0.20940
C1413       C  0.85628338  0.63179768  0.85146578    -0.07460
C1414       C  0.89288032  0.63662229  0.84513852     0.13400
C1415       C  0.90653628  0.66797760  0.81647701    -0.24290
H1416       H  0.94516690  0.61766918  0.86152965     0.14690
H1417       H  0.81867514  0.59771251  0.88472300     0.14720
C1418       C  0.85706766  0.54656737  0.92867671    -0.24240
H1419       H  0.93523904  0.67181946  0.81831301     0.04930
H1420       H  0.89450729  0.70034410  0.82010241     0.08150
H1421       H  0.90080839  0.65570448  0.78871443     0.08150
H1422       H  0.84307964  0.56417193  0.95064791     0.08140
H1423       H  0.87775407  0.52634028  0.94140445     0.08140
H1424       H  0.83858709  0.52423067  0.91514779     0.04910
C1425       C  0.89189600  0.37157058  0.91967025    -0.20890
C1426       C  0.92231680  0.38926408  0.90390961    -0.07460
C1427       C  0.92693781  0.38716711  0.86511151     0.13410
C1428       C  0.90092689  0.36822029  0.84366604    -0.20940
C1429       C  0.87032630  0.35180677  0.85952386    -0.07460
C1430       C  0.86591221  0.35297498  0.89810439     0.13400
C1431       C  0.83444296  0.33365138  0.91700137    -0.24290
H1432       H  0.88790437  0.37291189  0.94917133     0.14690
H1433       H  0.90431018  0.36659366  0.81406727     0.14720
C1434       C  0.95899866  0.40412776  0.84563452    -0.24240
H1435       H  0.83660189  0.33486042  0.94747271     0.04930
H1436       H  0.83154852  0.29918980  0.90929597     0.08150
H1437       H  0.81075993  0.35207501  0.90900666     0.08150
H1438       H  0.98269699  0.38893013  0.85769695     0.08140
H1439       H  0.96037020  0.43987586  0.84781070     0.08140
H1440       H  0.95875074  0.39670731  0.81579726     0.04910
C1441       C  0.37854433  0.16029819  0.40915434    -0.20890
C1442       C  0.39430219  0.17935089  0.37769741    -0.07460
C1443       C  0.43096803  0.18590253  0.37834082     0.13410
C1444       C  0.45059120  0.16930088  0.40818447    -0.20940
C1445       C  0.43460471  0.14694388  0.43745546    -0.07460
C1446       C  0.39806635  0.14430384  0.43875515     0.13400
C1447       C  0.37903975  0.12203570  0.47011300    -0.24290
H1448       H  0.35055514  0.15637790  0.41063233     0.14690
H1449       H  0.47880030  0.17056361  0.40718594     0.14720
C1450       C  0.45005713  0.20878292  0.34761334    -0.24240
H1451       H  0.35979077  0.14471097  0.48207265     0.04930
H1452       H  0.39676009  0.11139356  0.49263686     0.08150
H1453       H  0.36506881  0.09324163  0.45971551     0.08150
H1454       H  0.44039120  0.24252125  0.34500734     0.08140
H1455       H  0.44626963  0.19119784  0.32152401     0.08140
H1456       H  0.47851759  0.21041363  0.35289423     0.04910
C1457       C  0.62352173  0.83291564  0.34828648    -0.20890
C1458       C  0.65686039  0.82397926  0.36264310    -0.07460
C1459       C  0.66515982  0.83836154  0.39860492     0.13410
C1460       C  0.64124668  0.86373123  0.41771618    -0.20940
C1461       C  0.60902296  0.87456396  0.40250303    -0.07460
C1462       C  0.59939625  0.85804023  0.36799748     0.13400
C1463       C  0.56409685  0.86774670  0.35184321    -0.24290
H1464       H  0.61676539  0.82153162  0.32113063     0.14690
H1465       H  0.64786481  0.87565237  0.44474767     0.14720
C1466       C  0.69885311  0.82685069  0.41765343    -0.24240
H1467       H  0.56075540  0.85261969  0.32452118     0.04930
H1468       H  0.56074622  0.90328333  0.34838715     0.08150
H1469       H  0.54347855  0.85502032  0.37052029     0.08150
H1470       H  0.72068844  0.84434694  0.40426084     0.08140
H1471       H  0.70308345  0.79132225  0.41690124     0.08140
H1472       H  0.69874017  0.83640033  0.44702269     0.04910
C1473       C  0.63904235  0.09525679  0.61499378    -0.20890
C1474       C  0.60557840  0.11317298  0.61034459    -0.07460
C1475       C  0.59727708  0.15167347  0.62888520     0.13410
C1476       C  0.62235436  0.17033831  0.65215034    -0.20940
C1477       C  0.65547545  0.15129926  0.65766985    -0.07460
C1478       C  0.66367839  0.11292271  0.63864162     0.13400
C1479       C  0.69755592  0.08868594  0.64392000    -0.24290
H1480       H  0.64599681  0.06620569  0.60036075     0.14690
H1481       H  0.61586262  0.19988116  0.66634677     0.14720
C1482       C  0.56187910  0.17225936  0.62544130    -0.24240
H1483       H  0.69795398  0.05765666  0.62886331     0.04930
H1484       H  0.70131170  0.08073491  0.67356376     0.08150
H1485       H  0.71964419  0.10827318  0.63323955     0.08150
H1486       H  0.54171288  0.14869714  0.63442164     0.08140
H1487       H  0.55709052  0.18240112  0.59642952     0.08140
H1488       H  0.55946979  0.20139018  0.64281831     0.04910
C1489       C  0.60765053  0.81239400  0.58487886    -0.20890
C1490       C  0.61786729  0.84515013  0.56023048    -0.07460
C1491       C  0.65366553  0.85562670  0.55685869     0.13410
C1492       C  0.67769130  0.83714687  0.58148533    -0.20940
C1493       C  0.66669127  0.80854436  0.60930731    -0.07460
C1494       C  0.63177525  0.79368842  0.60943718     0.13400
C1495       C  0.61971133  0.75857869  0.63563345    -0.24290
H1496       H  0.58028535  0.80415445  0.58715988     0.14690
H1497       H  0.70476927  0.84701396  0.58023539     0.14720
C1498       C  0.66703537  0.88776281  0.52865143    -0.24240
H1499       H  0.59226511  0.74921637  0.63033788     0.04930
H1500       H  0.62122183  0.76998963  0.66427377     0.08150
H1501       H  0.63623643  0.72934174  0.63247979     0.08150
H1502       H  0.67907339  0.91563945  0.54274285     0.08140
H1503       H  0.64624289  0.89995914  0.51009364     0.08140
H1504       H  0.68707430  0.87202190  0.51131148     0.04910
C1505       C  0.38177252  0.10658830  0.59687056    -0.20890
C1506       C  0.41749292  0.11155484  0.60410649    -0.07460
C1507       C  0.42793563  0.13936339  0.63256713     0.13410
C1508       C  0.40246065  0.16026898  0.65383620    -0.20940
C1509       C  0.36668568  0.15500940  0.64688328    -0.07460
C1510       C  0.35627657  0.12836598  0.61746447     0.13400
C1511       C  0.31838695  0.12131330  0.60851228    -0.24290
H1512       H  0.37377882  0.08523904  0.57501583     0.14690
H1513       H  0.41054233  0.18094959  0.67610918     0.14720
C1514       C  0.46583685  0.14588104  0.64143852    -0.24240
H1515       H  0.31501461  0.09772521  0.58601158     0.04930
H1516       H  0.30626281  0.15224867  0.59929372     0.08150
H1517       H  0.30449341  0.10856905  0.63320726     0.08150
H1518       H  0.47920705  0.16099999  0.61740258     0.08140
H1519       H  0.47822351  0.11424079  0.64819283     0.08140
H1520       H  0.46942070  0.16745816  0.66532508     0.04910
C1521       C  0.41700191  0.81013996  0.36839380    -0.20890
C1522       C  0.39451890  0.83514123  0.34620408    -0.07460
C1523       C  0.39819587  0.88039481  0.34500993     0.13410
C1524       C  0.42247905  0.89978201  0.36797071    -0.20940
C1525       C  0.44271901  0.87549629  0.39338279    -0.07460
C1526       C  0.44083132  0.82966525  0.39247561     0.13400
C1527       C  0.46282697  0.80102431  0.41706017    -0.24290
H1528       H  0.41494453  0.77522586  0.36785897     0.14690
H1529       H  0.42459768  0.93473425  0.36668883     0.14720
C1530       C  0.37689003  0.90853584  0.31922592    -0.24240
H1531       H  0.45803139  0.76615609  0.41204718     0.04930
H1532       H  0.45653583  0.80716302  0.44634379     0.08150
H1533       H  0.49085719  0.80737413  0.41177004     0.08150
H1534       H  0.34904463  0.90712674  0.32711303     0.08140
H1535       H  0.38014739  0.89728629  0.29057185     0.08140
H1536       H  0.38497922  0.94301057  0.32002688     0.04910
C1537       C  0.40683240  0.66490272  0.84990200    -0.20890
C1538       C  0.37300527  0.67303872  0.86310538    -0.07460
C1539       C  0.36311659  0.65754344  0.89828571     0.13410
C1540       C  0.38711116  0.63369583  0.91902806    -0.20940
C1541       C  0.42062088  0.62473908  0.90557194    -0.07460
C1542       C  0.43084996  0.64080272  0.87070881     0.13400
C1543       C  0.46697952  0.63357848  0.85568759    -0.24290
H1544       H  0.41435944  0.67709905  0.82289502     0.14690
H1545       H  0.37934163  0.62107420  0.94582143     0.14720
C1546       C  0.32701502  0.66394696  0.91354104    -0.24240
H1547       H  0.47084395  0.65055886  0.82881561     0.04930
H1548       H  0.47146152  0.59855127  0.85127881     0.08150
H1549       H  0.48664005  0.64600630  0.87528149     0.08150
H1550       H  0.30763699  0.64972943  0.89458223     0.08140
H1551       H  0.32181212  0.69896109  0.91711053     0.08140
H1552       H  0.32371950  0.64790544  0.94090490     0.04910
C1553       C  0.41168997  0.39711455  0.19959227    -0.20890
C1554       C  0.40428278  0.35485325  0.18913940    -0.07460
C1555       C  0.42025391  0.33636811  0.15826866     0.13410
C1556       C  0.44109984  0.36248395  0.13612724    -0.20940
C1557       C  0.44577295  0.40619644  0.14431108    -0.07460
C1558       C  0.43264229  0.42339172  0.17735928     0.13400
C1559       C  0.43841344  0.46976960  0.18797163    -0.24290
H1560       H  0.39930687  0.41025065  0.22385480     0.14690
H1561       H  0.45213124  0.34932792  0.11113940     0.14720
C1562       C  0.41426220  0.29024169  0.14677755    -0.24240
H1563       H  0.42491984  0.47769306  0.21409324     0.04930
H1564       H  0.42825449  0.49182435  0.16607028     0.08150
H1565       H  0.46663420  0.47551763  0.19210595     0.08150
H1566       H  0.40188164  0.28999206  0.11915296     0.08140
H1567       H  0.39734216  0.27183288  0.16613770     0.08140
H1568       H  0.43965976  0.27312262  0.14529670     0.04910
C1569       C  0.64530354  0.58418253  0.12822545    -0.20890
C1570       C  0.61052489  0.59690307  0.13102755    -0.07460
C1571       C  0.60033123  0.62454999  0.15964755     0.13410
C1572       C  0.62574915  0.64063680  0.18376569    -0.20940
C1573       C  0.66114397  0.62892636  0.18056312    -0.07460
C1574       C  0.67061280  0.59870378  0.15292425     0.13400
C1575       C  0.70692307  0.58049134  0.14900203    -0.24290
H1576       H  0.65262853  0.56207159  0.10662679     0.14690
H1577       H  0.61787047  0.66320317  0.20475226     0.14720
C1578       C  0.56290379  0.63819822  0.16401506    -0.24240
H1579       H  0.70807281  0.55434092  0.12836594     0.04930
H1580       H  0.71570919  0.56630079  0.17569819     0.08150
H1581       H  0.72512116  0.60609176  0.13943481     0.08150
H1582       H  0.54645082  0.60941499  0.16987527     0.08140
H1583       H  0.55371233  0.65446719  0.13832543     0.08140
H1584       H  0.55955498  0.66105404  0.18707242     0.04910
C1585       C  0.59622089  0.35996511  0.13662580    -0.20890
C1586       C  0.60107346  0.40437170  0.13072786    -0.07460
C1587       C  0.62868249  0.42590653  0.14839519     0.13410
C1588       C  0.65181938  0.40192769  0.17050260    -0.20940
C1589       C  0.64739091  0.35725040  0.17605519    -0.07460
C1590       C  0.61866696  0.33613460  0.15963411     0.13400
C1591       C  0.61218484  0.28831779  0.16495745    -0.24290
H1592       H  0.57482359  0.34389250  0.12298190     0.14690
H1593       H  0.67364131  0.41805007  0.18332794     0.14720
C1594       C  0.63460731  0.47376178  0.14279277    -0.24240
H1595       H  0.59000477  0.27695334  0.14803808     0.04930
H1596       H  0.60585881  0.28107073  0.19422583     0.08150
H1597       H  0.63564774  0.26985474  0.15686025     0.08150
H1598       H  0.61187685  0.49213482  0.15320424     0.08140
H1599       H  0.63827480  0.48116950  0.11303115     0.08140
H1600       H  0.65807250  0.48505350  0.15771320     0.04910
C1601       C  0.59268099  0.60135052  0.85446602    -0.20890
C1602       C  0.60419134  0.58503229  0.88863607    -0.07460
C1603       C  0.64068304  0.58526535  0.89600730     0.13410
C1604       C  0.66387200  0.60372630  0.87048811    -0.20940
C1605       C  0.65239119  0.62176773  0.83719598    -0.07460
C1606       C  0.61621577  0.61970471  0.82865022     0.13400
C1607       C  0.60185636  0.63821536  0.79314249    -0.24290
H1608       H  0.56503439  0.60112664  0.84844800     0.14690
H1609       H  0.69146459  0.60439280  0.87681959     0.14720
C1610       C  0.65609182  0.56664740  0.93091690    -0.24240
H1611       H  0.57298647  0.63622476  0.79217384     0.04930
H1612       H  0.61207871  0.61975488  0.76949643     0.08150
H1613       H  0.60925004  0.67283189  0.79018401     0.08150
H1614       H  0.64518816  0.53400808  0.93685333     0.08140
H1615       H  0.65080235  0.58913211  0.95367320     0.08140
H1616       H  0.68484416  0.56317944  0.92908992     0.04910
C1617       C  0.38697619  0.36199161  0.86427316    -0.20890
C1618       C  0.35110062  0.37189681  0.86568739    -0.07460
C1619       C  0.34076889  0.40698101  0.88790700     0.13410
C1620       C  0.36609709  0.43047020  0.90814626    -0.20940
C1621       C  0.40207122  0.42076777  0.90633690    -0.07460
C1622       C  0.41221353  0.38532475  0.88445635     0.13400
C1623       C  0.44969328  0.37113231  0.88319244    -0.24290
H1624       H  0.39539485  0.33554934  0.84710279     0.14690
H1625       H  0.35773371  0.45682566  0.92542237     0.14720
C1626       C  0.30315226  0.42057044  0.88930683    -0.24240
H1627       H  0.45325390  0.34213848  0.86586524     0.04930
H1628       H  0.45892736  0.36295307  0.91143746     0.08150
H1629       H  0.46587943  0.39758765  0.87140603     0.08150
H1630       H  0.28703881  0.39348539  0.90025670     0.08140
H1631       H  0.29402371  0.42952116  0.86118471     0.08140
H1632       H  0.29929348  0.44893102  0.90730100     0.04910
C1633       C  0.19221821  0.41840618  0.37304446    -0.20890
C1634       C  0.18848630  0.37361892  0.36897798    -0.07460
C1635       C  0.16433623  0.35027741  0.39065348     0.13410
C1636       C  0.14259968  0.37295953  0.41419813    -0.20940
C1637       C  0.14447228  0.41817588  0.41644111    -0.07460
C1638       C  0.17029208  0.44122195  0.39662068     0.13400
C1639       C  0.17381005  0.48965962  0.39881831    -0.24290
H1640       H  0.21170563  0.43563757  0.35694410     0.14690
H1641       H  0.12325513  0.35539963  0.43024800     0.14720
C1642       C  0.16171602  0.30156531  0.38952220    -0.24240
H1643       H  0.19430373  0.50234560  0.37995386     0.04930
H1644       H  0.18091741  0.49882625  0.42726162     0.08150
H1645       H  0.14880244  0.50520806  0.39109800     0.08150
H1646       H  0.18744975  0.28681072  0.39590847     0.08140
H1647       H  0.15303154  0.29131843  0.36187422     0.08140
H1648       H  0.14262321  0.28874350  0.40991575     0.04910
C1649       C  0.87011877  0.65541308  0.59736381    -0.20890
C1650       C  0.84276109  0.63136875  0.61259591    -0.07460
C1651       C  0.84000274  0.58676431  0.60575776     0.13410
C1652       C  0.86661769  0.56635648  0.58607448    -0.20940
C1653       C  0.89608532  0.58962480  0.57419151    -0.07460
C1654       C  0.89717656  0.63510571  0.57861443     0.13400
C1655       C  0.92692468  0.66256632  0.56455598    -0.24290
H1656       H  0.87167506  0.68983572  0.60262872     0.14690
H1657       H  0.86537392  0.53172123  0.58188779     0.14720
C1658       C  0.80927018  0.56087075  0.61944128    -0.24240
H1659       H  0.92133824  0.69768632  0.56715080     0.04930
H1660       H  0.93171557  0.65603717  0.53499819     0.08150
H1661       H  0.95069009  0.65568826  0.58092775     0.08150
H1662       H  0.78485126  0.57514527  0.60821713     0.08140
H1663       H  0.80825517  0.56105341  0.64997183     0.08140
H1664       H  0.81077394  0.52663192  0.61065471     0.04910
C1665       C  0.12336259  0.65419256  0.59973184    -0.20890
C1666       C  0.12804746  0.60973548  0.59374946    -0.07460
C1667       C  0.15548881  0.58771286  0.61223324     0.13410
C1668       C  0.17731332  0.61055200  0.63625045    -0.20940
C1669       C  0.17286906  0.65500971  0.64173921    -0.07460
C1670       C  0.14570726  0.67718569  0.62313414     0.13400
C1671       C  0.13979720  0.72488777  0.62868442    -0.24290
H1672       H  0.10217012  0.67101287  0.58590891     0.14690
H1673       H  0.19813213  0.59370273  0.65068682     0.14720
C1674       C  0.16127105  0.53989529  0.60764867    -0.24240
H1675       H  0.11703849  0.73703258  0.61270972     0.04930
H1676       H  0.16307546  0.74341701  0.61953317     0.08150
H1677       H  0.13492951  0.73110883  0.65828674     0.08150
H1678       H  0.16883548  0.53339568  0.57884634     0.08140
H1679       H  0.13710887  0.52186649  0.61467118     0.08140
H1680       H  0.18249312  0.52750629  0.62573977     0.04910
C1681       C  0.89297891  0.39561008  0.61485577    -0.20890
C1682       C  0.92860874  0.38600419  0.61724277    -0.07460
C1683       C  0.93972666  0.35819919  0.64669393     0.13410
C1684       C  0.91488786  0.33993287  0.67134181    -0.20940
C1685       C  0.87902538  0.34895700  0.66830481    -0.07460
C1686       C  0.86833949  0.37839406  0.63956513     0.13400
C1687       C  0.83109241  0.39298948  0.63380687    -0.24290
H1688       H  0.88396605  0.41747745  0.59327544     0.14690
H1689       H  0.92366240  0.31813309  0.69308294     0.14720
C1690       C  0.97755090  0.34713025  0.65263514    -0.24240
H1691       H  0.82852989  0.41772955  0.61144156     0.04930
H1692       H  0.82092969  0.40795009  0.65924947     0.08150
H1693       H  0.81481659  0.36522906  0.62558546     0.08150
H1694       H  0.99244642  0.37693006  0.65871392     0.08140
H1695       H  0.98827539  0.33143347  0.62777435     0.08140
H1696       H  0.98126128  0.32439121  0.67630079     0.04910
C1697       C  0.12455204  0.59332909  0.36282721    -0.20890
C1698       C  0.11221264  0.61614282  0.39322773    -0.07460
C1699       C  0.11926140  0.66085116  0.39560144     0.13410
C1700       C  0.13944214  0.68143722  0.36796920    -0.20940
C1701       C  0.15305537  0.65811056  0.33827511    -0.07460
C1702       C  0.14552110  0.61336180  0.33586885     0.13400
C1703       C  0.15988955  0.58546063  0.30572502    -0.24290
H1704       H  0.11815149  0.55937152  0.36030825     0.14690
H1705       H  0.14609496  0.71534261  0.37054078     0.14720
C1706       C  0.10618180  0.68642643  0.42774386    -0.24240
H1707       H  0.17586134  0.55898134  0.31805962     0.04930
H1708       H  0.17652092  0.60370757  0.28602533     0.08150
H1709       H  0.13806665  0.57102013  0.29008500     0.08150
H1710       H  0.11676923  0.67245753  0.45378879     0.08140
H1711       H  0.07729487  0.68524330  0.42865204     0.08140
H1712       H  0.11424858  0.72089093  0.42572395     0.04910
C1713       C  0.90772570  0.33144722  0.35930111    -0.20890
C1714       C  0.87231143  0.32987646  0.36852123    -0.07460
C1715       C  0.86170670  0.34958168  0.40212369     0.13410
C1716       C  0.88614885  0.37178948  0.42371131    -0.20940
C1717       C  0.92133322  0.37508959  0.41370281    -0.07460
C1718       C  0.93226872  0.35344437  0.38105263     0.13400
C1719       C  0.96949189  0.35359738  0.36774641    -0.24290
H1720       H  0.91626347  0.31620271  0.33416872     0.14690
H1721       H  0.87742018  0.38711905  0.44872861     0.14720
C1722       C  0.82482961  0.34725954  0.41646829    -0.24240
H1723       H  0.97283001  0.33503558  0.34201935     0.04930
H1724       H  0.98671394  0.33833784  0.38878772     0.08150
H1725       H  0.97779029  0.38726255  0.36158192     0.08150
H1726       H  0.81638994  0.31295538  0.41846496     0.08140
H1727       H  0.80711334  0.36621248  0.39825135     0.08140
H1728       H  0.82236376  0.36109656  0.44440885     0.04910
C1729       C  0.38607287  0.59615960  0.34129880    -0.20890
C1730       C  0.37700992  0.63850659  0.35019265    -0.07460
C1731       C  0.38298249  0.65490687  0.38564081     0.13410
C1732       C  0.39826919  0.62799494  0.41183950    -0.20940
C1733       C  0.40810379  0.58610102  0.40271655    -0.07460
C1734       C  0.40209953  0.56952897  0.36741675     0.13400
C1735       C  0.41208766  0.52388247  0.35769245    -0.24290
H1736       H  0.38004713  0.58386705  0.31421558     0.14690
H1737       H  0.40395464  0.64033911  0.43901817     0.14720
C1738       C  0.37354753  0.70024333  0.39680842    -0.24240
H1739       H  0.40445588  0.51607403  0.32904944     0.04930
H1740       H  0.39881929  0.50068555  0.37664779     0.08150
H1741       H  0.44069217  0.51950635  0.36008505     0.08150
H1742       H  0.35330386  0.69892497  0.41863717     0.08140
H1743       H  0.36369628  0.72036970  0.37362483     0.08140
H1744       H  0.39697233  0.71650631  0.40793371     0.04910
C1745       C  0.66461258  0.34353327  0.61959364    -0.20890
C1746       C  0.65373354  0.33831822  0.65639573    -0.07460
C1747       C  0.62113008  0.35500328  0.66716501     0.13410
C1748       C  0.60062724  0.37708920  0.64102409    -0.20940
C1749       C  0.61167549  0.38294044  0.60425819    -0.07460
C1750       C  0.64403900  0.36539411  0.59333898     0.13400
C1751       C  0.65678565  0.36838624  0.55409476    -0.24290
H1752       H  0.68954246  0.33031891  0.61130214     0.14690
H1753       H  0.57587522  0.39051988  0.64962165     0.14720
C1754       C  0.60833161  0.35120546  0.70631985    -0.24240
H1755       H  0.68150568  0.35027768  0.55025818     0.04930
H1756       H  0.66185263  0.40263508  0.54628700     0.08150
H1757       H  0.63706230  0.35450237  0.53530452     0.08150
H1758       H  0.62753697  0.36598280  0.72518891     0.08140
H1759       H  0.60447780  0.31663539  0.71395662     0.08140
H1760       H  0.58301667  0.36801008  0.71012655     0.04910
C1761       C  0.35991085  0.42246332  0.59990045    -0.20890
C1762       C  0.38415656  0.39951765  0.57917879    -0.07460
C1763       C  0.38266426  0.35405549  0.57719299     0.13410
C1764       C  0.36010694  0.33195421  0.60074038    -0.20940
C1765       C  0.33956265  0.35480301  0.62563565    -0.07460
C1766       C  0.33726252  0.40040208  0.62341554     0.13400
C1767       C  0.31150718  0.42582774  0.64587651    -0.24290
H1768       H  0.36045660  0.45757572  0.59972408     0.14690
H1769       H  0.36033817  0.29684411  0.60153768     0.14720
C1770       C  0.40497907  0.32896119  0.55077170    -0.24240
H1771       H  0.31157381  0.46069554  0.63793500     0.04930
H1772       H  0.31808891  0.42362728  0.67552822     0.08150
H1773       H  0.28481423  0.41317901  0.64138132     0.08150
H1774       H  0.43288436  0.33232518  0.55779359     0.08140
H1775       H  0.40051933  0.34116127  0.52223600     0.08140
H1776       H  0.39868295  0.29387578  0.55161666     0.04910
C1777       C  0.66022065  0.55745101  0.40622815    -0.20890
C1778       C  0.63239357  0.58081536  0.42127473    -0.07460
C1779       C  0.62917220  0.62568409  0.41309676     0.13410
C1780       C  0.65251953  0.64526025  0.38852370    -0.20940
C1781       C  0.67928771  0.62163679  0.37208342    -0.07460
C1782       C  0.68387496  0.57739670  0.38171345     0.13400
C1783       C  0.71254816  0.55068629  0.36507463    -0.24290
H1784       H  0.66256494  0.52312772  0.41241631     0.14690
H1785       H  0.64979384  0.67947073  0.38195185     0.14720
C1786       C  0.60142761  0.65355955  0.43033394    -0.24240
H1787       H  0.71096479  0.51620348  0.37403991     0.04930
H1788       H  0.73827413  0.56317943  0.37379620     0.08150
H1789       H  0.71065954  0.55202154  0.33456591     0.08150
H1790       H  0.60182225  0.64919821  0.46073972     0.08140
H1791       H  0.57540458  0.64514708  0.41941006     0.08140
H1792       H  0.60558164  0.68848298  0.42407237     0.04910
C1793       C  0.37147448  0.58373191  0.60757783    -0.20890
C1794       C  0.39521679  0.60660268  0.58534429    -0.07460
C1795       C  0.39229111  0.65206434  0.58190273     0.13410
C1796       C  0.36701373  0.67390067  0.60273750    -0.20940
C1797       C  0.34502891  0.65121317  0.62714020    -0.07460
C1798       C  0.34668104  0.60548577  0.62886581     0.13400
C1799       C  0.32245546  0.57954985  0.65331170    -0.24290
H1800       H  0.37325734  0.54872450  0.60938092     0.14690
H1801       H  0.36568893  0.70894682  0.60149190     0.14720
C1802       C  0.41567097  0.67741044  0.55621682    -0.24240
H1803       H  0.32627877  0.54417828  0.64997703     0.04930
H1804       H  0.29501491  0.58739644  0.64620869     0.08150
H1805       H  0.32718208  0.58697654  0.68266046     0.08150
H1806       H  0.41271817  0.66536774  0.52772383     0.08140
H1807       H  0.44320866  0.67375304  0.56495700     0.08140
H1808       H  0.40920217  0.71246670  0.55601272     0.04910
C1809       C  0.62908791  0.40548695  0.38558536    -0.20890
C1810       C  0.61410124  0.37945412  0.41318246    -0.07460
C1811       C  0.61616534  0.33398386  0.41142075     0.13410
C1812       C  0.63401291  0.31539151  0.38205281    -0.20940
C1813       C  0.64930824  0.34148792  0.35466282    -0.07460
C1814       C  0.64665039  0.38694017  0.35609312     0.13400
C1815       C  0.66169707  0.41571379  0.32619098    -0.24290
H1816       H  0.62600283  0.44037053  0.38651892     0.14690
H1817       H  0.63715533  0.28052953  0.38112841     0.14720
C1818       C  0.60030004  0.30533112  0.44089141    -0.24240
H1819       H  0.65578777  0.45040178  0.33092353     0.04930
H1820       H  0.65050671  0.40678221  0.29915717     0.08150
H1821       H  0.69040734  0.41212020  0.32520395     0.08150
H1822       H  0.57164034  0.30978814  0.44154480     0.08140
H1823       H  0.61134876  0.31365548  0.46813563     0.08140
H1824       H  0.60564302  0.27055918  0.43592761     0.04910
loop_ 
_geom_bond_atom_site_label_1 
_geom_bond_atom_site_label_2 
_geom_bond_distance 
_geom_bond_site_symmetry_2 
_ccdc_geom_bond_type 
Zr1           O2   2.439       .  S
Zr1           O3   2.435       .  S
Zr1           O4   2.451       .  S
Zr1           O7   2.450       .  S
Zr1           O9   2.385       .  S
Zr1          O10   2.381       .  S
Zr1          O11   2.411       .  S
Zr1          O12   2.407       .  S
O2           H58   0.990       .  S
O2           H66   0.990       .  S
O3           C23   1.284       .  A
O4           C25   1.287       .  A
O5          Zr15   2.391       .  S
O5           C24   1.275       .  A
O6          Zr14   2.400       .  S
O6           C25   1.279       .  A
O7           C24   1.287       .  A
O8          Zr16   2.378       .  S
O8           C23   1.273       .  A
O9          Zr14   2.388       .  S
O9          Zr16   2.380       .  S
O10         Zr15   2.371       .  S
O10         Zr16   2.377       .  S
O10          H45   0.966       .  S
O11         Zr14   2.393       .  S
O11         Zr31   2.405       .  S
O11          H48   0.966       .  S
O12         Zr15   2.381       .  S
O12         Zr31   2.408       .  S
Zr13         O38   2.447       .  S
Zr13         O32   2.413       .  S
Zr13         O40   2.392       .  S
Zr13         O28   2.386       .  S
Zr13         O19   2.385       .  S
Zr13         O20   2.394       .  S
Zr13         O21   2.376       .  S
Zr13         O22   2.377       .  S
Zr14         O33   2.435       .  S
Zr14         O26   2.434       .  S
Zr14         O27   2.407       .  S
Zr14         O20   2.387       .  S
Zr14         O21   2.381       .  S
Zr15         O17   2.434       .  S
Zr15         O39   2.440       .  S
Zr15         O41   2.376       .  S
Zr15         O19   2.381       .  S
Zr15         O22   2.376       .  S
Zr16         O42   2.436       .  S
Zr16         O43   2.436       .  S
Zr16         O18   2.436       .  S
Zr16         O19   2.375       .  S
Zr16         O20   2.370       .  S
O17          H54   0.990       .  S
O18          H49   0.990       .  S
O18          H63   0.990       .  S
O20          H46   0.965       .  S
O21         Zr31   2.371       .  S
O22         Zr31   2.370       .  S
O22          H47   0.966       .  S
C23        C1810   1.451       .  S
C24        C1778   1.477       .  S
C25        C1749   1.484       .  S
O26          H62   0.990       .  S
O27          C29   1.281       .  A
O28          C29   1.275       .  A
C29        C1762   1.441       .  S
O30         Zr31   2.440       .  S
O30          H59   0.990       .  S
Zr31         O34   2.437       .  S
Zr31         O35   2.439       .  S
Zr31         O36   2.452       .  S
O32          C37   1.280       .  A
O33          H50   0.990       .  S
O33          H65   0.990       .  S
O34          H51   0.990       .  S
O35          H55   0.990       .  S
O35          H64   0.989       .  S
O36          C37   1.287       .  A
C37        C1794   1.477       .  S
O38          H57   0.990       .  S
O38          H61   0.990       .  S
O39          H53   0.990       .  S
O39          H60   0.990       .  S
O40          C44   1.276       .  A
O41          C44   1.273       .  A
O42          H52   0.990       .  S
O43          H56   0.990       .  S
C44        C1733   1.427       .  S
Zr67         O68   2.441       .  S
Zr67         O69   2.460       .  S
Zr67         O70   2.496       .  S
Zr67         O73   2.429       .  S
Zr67         O75   2.371       .  S
Zr67         O76   2.394       .  S
Zr67         O77   2.404       .  S
Zr67         O78   2.418       .  S
O68         H124   0.990       .  S
O68         H132   0.990       .  S
O69          C89   1.291       .  A
O70          C91   1.296       .  A
O71         Zr81   2.412   1_655  S
O71          C90   1.282       .  A
O72         Zr80   2.400   1_655  S
O72          C91   1.275       .  A
O73          C90   1.285       .  A
O74         Zr82   2.438   1_655  S
O74          C89   1.282       .  A
O75         Zr80   2.393   1_655  S
O75         Zr82   2.383   1_655  S
O76         Zr81   2.396   1_655  S
O76         Zr82   2.373   1_655  S
O76         H111   0.965       .  S
O77         Zr80   2.389   1_655  S
O77         Zr97   2.406   1_655  S
O77         H114   0.966       .  S
O78         Zr81   2.393   1_655  S
O78         Zr97   2.388   1_655  S
Zr79        O104   2.439       .  S
Zr79         O98   2.460       .  S
Zr79        O106   2.446       .  S
Zr79         O94   2.424       .  S
Zr79         O85   2.403       .  S
Zr79         O86   2.415       .  S
Zr79         O87   2.377       .  S
Zr79         O88   2.377       .  S
Zr80         O99   2.436       .  S
Zr80         O92   2.434       .  S
Zr80         O93   2.385       .  S
Zr80         O86   2.395       .  S
Zr80         O87   2.381       .  S
Zr81         O83   2.434       .  S
Zr81        O105   2.438       .  S
Zr81        O107   2.440       .  S
Zr81         O85   2.382       .  S
Zr81         O88   2.384       .  S
Zr82        O108   2.435       .  S
Zr82        O109   2.436       .  S
Zr82         O84   2.437       .  S
Zr82         O85   2.400       .  S
Zr82         O86   2.401       .  S
O83         H120   0.990       .  S
O84         H115   0.990       .  S
O84         H129   0.990       .  S
O86         H112   0.966       .  S
O87         Zr97   2.373       .  S
O88         Zr97   2.387       .  S
O88         H113   0.966       .  S
C89        C1682   1.514       .  S
C90        C1653   1.472       .  S
C91        C1717   1.513       .  S
O92         H128   0.990       .  S
O93          C95   1.277       .  A
O94          C95   1.280       .  A
C95        C1637   1.460       .  S
O96         Zr97   2.440   1_655  S
O96         H125   0.990       .  S
Zr97        O100   2.437   1_455  S
Zr97        O101   2.442   1_455  S
Zr97        O102   2.424       .  S
O98         C103   1.289       .  A
O99         H116   0.990       .  S
O99         H131   0.990       .  S
O100        H117   0.990   1_655  S
O101        H121   0.990   1_655  S
O101        H130   0.989   1_655  S
O102        C103   1.281       .  A
C103       C1698   1.482       .  S
O104        H123   0.991       .  S
O104        H127   0.990       .  S
O105        H119   0.990       .  S
O105        H126   0.990   1_455  S
O106        C110   1.287       .  A
O107        C110   1.286       .  A
O108        H118   0.990       .  S
O109        H122   0.990       .  S
C110       C1666   1.488       .  S
Zr133       O134   2.437       .  S
Zr133       O135   2.414       .  S
Zr133       O136   2.380       .  S
Zr133       O139   2.413       .  S
Zr133       O141   2.386       .  S
Zr133       O142   2.366       .  S
Zr133       O143   2.399       .  S
Zr133       O144   2.383       .  S
O134        H190   0.990       .  S
O134        H198   0.990       .  S
O135        C155   1.280       .  A
O136        C157   1.274       .  A
O137       Zr147   2.449       .  S
O137        C156   1.287       .  A
O138       Zr146   2.412       .  S
O138        C157   1.283       .  A
O139        C156   1.280       .  A
O140       Zr148   2.435       .  S
O140        C155   1.284       .  A
O141       Zr146   2.384       .  S
O141       Zr148   2.363       .  S
O142       Zr147   2.364       .  S
O142       Zr148   2.373       .  S
O142        H177   0.965       .  S
O143       Zr146   2.395       .  S
O143       Zr163   2.383       .  S
O143        H180   0.966       .  S
O144       Zr147   2.374       .  S
O144       Zr163   2.385       .  S
Zr145       O170   2.445       .  S
Zr145       O164   2.431       .  S
Zr145       O172   2.500       .  S
Zr145       O160   2.528       .  S
Zr145       O151   2.412       .  S
Zr145       O152   2.408       .  S
Zr145       O153   2.384       .  S
Zr145       O154   2.405       .  S
Zr146       O165   2.438       .  S
Zr146       O158   2.435       .  S
Zr146       O159   2.433   1_554  S
Zr146       O152   2.396   1_554  S
Zr146       O153   2.377   1_554  S
Zr147       O149   2.434       .  S
Zr147       O171   2.439       .  S
Zr147       O173   2.392   1_554  S
Zr147       O151   2.405   1_554  S
Zr147       O154   2.394   1_554  S
Zr148       O174   2.435       .  S
Zr148       O175   2.435   1_554  S
Zr148       O150   2.436       .  S
Zr148       O151   2.391   1_554  S
Zr148       O152   2.404   1_554  S
O149        H186   0.990       .  S
O150        H181   0.990       .  S
O150        H195   0.990       .  S
O152        H178   0.966       .  S
O153       Zr163   2.379   1_556  S
O154       Zr163   2.383   1_556  S
O154        H179   0.966       .  S
C155       C1586   1.466       .  S
C156       C1570   1.475       .  S
C157       C1557   1.447       .  S
O158        H194   0.990       .  S
O159        C161   1.283       .  A
O160        C161   1.303       .  A
C161       C1621   1.519       .  S
O162       Zr163   2.440       .  S
O162        H191   0.990       .  S
Zr163       O166   2.438       .  S
Zr163       O167   2.439       .  S
Zr163       O168   2.383   1_554  S
O164        C169   1.284       .  A
O165        H182   0.990       .  S
O165        H197   0.990       .  S
O166        H183   0.990       .  S
O167        H187   0.990       .  S
O167        H196   0.990   1_554  S
O168        C169   1.276       .  A
C169       C1541   1.465       .  S
O170        H189   0.990       .  S
O170        H193   0.989       .  S
O171        H185   0.990       .  S
O171        H192   0.989       .  S
O172        C176   1.298       .  A
O173        C176   1.277       .  A
O174        H184   0.990       .  S
O175        H188   0.990       .  S
C176       C1602   1.500       .  S
Zr199       O200   2.435       .  S
Zr199       O201   2.415       .  S
Zr199       O202   2.454       .  S
Zr199       O205   2.458       .  S
Zr199       O207   2.383       .  S
Zr199       O208   2.382       .  S
Zr199       O209   2.408       .  S
Zr199       O210   2.412       .  S
O200        H256   0.990       .  S
O200        H264   0.990       .  S
O201        C221   1.280       .  A
O202        C223   1.287       .  A
O203       Zr213   2.399       .  S
O203        C222   1.278       .  A
O204       Zr212   2.387   1_565  S
O204        C223   1.278       .  A
O205        C222   1.289       .  A
O206       Zr214   2.442   1_565  S
O206        C221   1.286       .  A
O207       Zr212   2.374   1_565  S
O207       Zr214   2.368   1_565  S
O208       Zr213   2.377       .  S
O208       Zr214   2.356   1_565  S
O208        H243   0.964       .  S
O209       Zr212   2.385   1_565  S
O209       Zr229   2.398       .  S
O209        H246   0.966       .  S
O210       Zr213   2.379       .  S
O210       Zr229   2.406       .  S
Zr211       O236   2.447       .  S
Zr211       O230   2.453       .  S
Zr211       O238   2.471       .  S
Zr211       O226   2.460       .  S
Zr211       O217   2.407       .  S
Zr211       O218   2.416       .  S
Zr211       O219   2.384       .  S
Zr211       O220   2.387       .  S
Zr212       O231   2.437   1_545  S
Zr212       O224   2.436       .  S
Zr212       O225   2.379       .  S
Zr212       O218   2.389       .  S
Zr212       O219   2.375       .  S
Zr213       O215   2.434       .  S
Zr213       O237   2.438       .  S
Zr213       O239   2.381   1_565  S
Zr213       O217   2.388   1_565  S
Zr213       O220   2.380   1_565  S
Zr214       O240   2.436       .  S
Zr214       O241   2.435       .  S
Zr214       O216   2.437       .  S
Zr214       O217   2.401       .  S
Zr214       O218   2.394       .  S
O215        H252   0.990       .  S
O216        H247   0.990       .  S
O216        H261   0.990   1_545  S
O218        H244   0.966       .  S
O219       Zr229   2.370   1_545  S
O220       Zr229   2.381   1_545  S
O220        H245   0.966       .  S
C221       C1461   1.468       .  S
C222       C1490   1.468       .  S
C223       C1525   1.494       .  S
O224        H260   0.990       .  S
O225        C227   1.275       .  A
O226        C227   1.288       .  A
C227       C1445   1.462       .  S
O228       Zr229   2.440       .  S
O228        H257   0.990       .  S
Zr229       O232   2.438       .  S
Zr229       O233   2.442       .  S
Zr229       O234   2.429   1_565  S
O230        C235   1.289       .  A
O231        H248   0.990   1_565  S
O231        H263   0.990       .  S
O232        H249   0.990       .  S
O233        H253   0.990       .  S
O233        H262   0.989       .  S
O234        C235   1.284       .  A
C235       C1506   1.487       .  S
O236        H255   0.990       .  S
O236        H259   0.990       .  S
O237        H251   0.990       .  S
O237        H258   0.990       .  S
O238        C242   1.290       .  A
O239        C242   1.277       .  A
O240        H250   0.990       .  S
O241        H254   0.990       .  S
C242       C1474   1.490       .  S
Zr265       O266   2.437       .  S
Zr265       O267   2.411   1_455  S
Zr265       O268   2.488       .  S
Zr265       O271   2.539   1_455  S
Zr265       O273   2.407       .  S
Zr265       O274   2.372   1_455  S
Zr265       O275   2.418       .  S
Zr265       O276   2.398       .  S
O266        H322   0.990       .  S
O266        H330   0.990       .  S
O267        C287   1.279       .  A
O268        C289   1.297       .  A
O269       Zr279   2.420   1_556  S
O269        C288   1.280       .  A
O270       Zr278   2.382   1_556  S
O270        C289   1.277       .  A
O271        C288   1.306       .  A
O272       Zr280   2.426   1_556  S
O272        C287   1.285       .  A
O273       Zr278   2.401   1_556  S
O273       Zr280   2.371   1_456  S
O274       Zr279   2.366   1_556  S
O274       Zr280   2.372   1_556  S
O274        H309   0.965       .  S
O275       Zr278   2.411   1_556  S
O275       Zr295   2.375       .  S
O275        H312   0.965       .  S
O276       Zr279   2.382   1_456  S
O276       Zr295   2.395       .  S
Zr277       O302   2.442       .  S
Zr277       O296   2.420       .  S
Zr277       O304   2.452   1_455  S
Zr277       O292   2.509       .  S
Zr277       O283   2.414   1_455  S
Zr277       O284   2.399       .  S
Zr277       O285   2.370       .  S
Zr277       O286   2.403       .  S
Zr278       O297   2.434       .  S
Zr278       O290   2.434       .  S
Zr278       O291   2.442       .  S
Zr278       O284   2.377       .  S
Zr278       O285   2.360       .  S
Zr279       O281   2.435       .  S
Zr279       O303   2.438       .  S
Zr279       O305   2.376       .  S
Zr279       O283   2.397       .  S
Zr279       O286   2.386   1_655  S
Zr280       O306   2.436       .  S
Zr280       O307   2.435       .  S
Zr280       O282   2.435       .  S
Zr280       O283   2.394       .  S
Zr280       O284   2.398   1_655  S
O281        H318   0.990       .  S
O282        H313   0.990       .  S
O282        H327   0.990   1_554  S
O284        H310   0.966       .  S
O285       Zr295   2.383   1_554  S
O286       Zr295   2.371   1_554  S
O286        H311   0.966       .  S
C287       C1426   1.487       .  S
C288       C1410   1.520       .  S
C289       C1381   1.481       .  S
O290        H326   0.990       .  S
O291        C293   1.287       .  A
O292        C293   1.298       .  A
C293       C1362   1.528       .  S
O294       Zr295   2.441       .  S
O294        H323   0.990       .  S
Zr295       O298   2.438       .  S
Zr295       O299   2.441       .  S
Zr295       O300   2.401   1_556  S
O296        C301   1.284       .  A
O297        H314   0.989       .  S
O297        H329   0.988   1_554  S
O298        H315   0.990       .  S
O299        H319   0.990       .  S
O299        H328   0.989   1_556  S
O300        C301   1.278       .  A
C301       C1346   1.470       .  S
O302        H321   0.990   1_455  S
O302        H325   0.990       .  S
O303        H317   0.990       .  S
O303        H324   0.988       .  S
O304        C308   1.288       .  A
O305        C308   1.274       .  A
O306        H316   0.990       .  S
O307        H320   0.990       .  S
C308       C1394   1.473       .  S
Zr331       O332   2.439       .  S
Zr331       O333   2.416       .  S
Zr331       O334   2.451   1_565  S
Zr331       O337   2.460       .  S
Zr331       O339   2.382       .  S
Zr331       O340   2.380       .  S
Zr331       O341   2.409   1_565  S
Zr331       O342   2.401       .  S
O332        H388   0.991       .  S
O332        H396   0.990   1_565  S
O333        C353   1.283       .  A
O334        C355   1.286       .  A
O335       Zr345   2.465   1_655  S
O335        C354   1.290       .  A
O336       Zr344   2.374   1_655  S
O336        C355   1.273       .  A
O337        C354   1.289       .  A
O338       Zr346   2.383   1_655  S
O338        C353   1.273       .  A
O339       Zr344   2.380   1_665  S
O339       Zr346   2.381   1_655  S
O340       Zr345   2.372   1_655  S
O340       Zr346   2.386   1_655  S
O340        H375   0.966       .  S
O341       Zr344   2.393   1_655  S
O341       Zr361   2.403   1_655  S
O341        H378   0.966       .  S
O342       Zr345   2.379   1_655  S
O342       Zr361   2.408   1_665  S
Zr343       O368   2.442   1_545  S
Zr343       O362   2.410       .  S
Zr343       O370   2.407   1_545  S
Zr343       O358   2.467       .  S
Zr343       O349   2.406   1_545  S
Zr343       O350   2.383       .  S
Zr343       O351   2.369       .  S
Zr343       O352   2.400       .  S
Zr344       O363   2.437       .  S
Zr344       O356   2.436       .  S
Zr344       O357   2.385       .  S
Zr344       O350   2.384       .  S
Zr344       O351   2.376       .  S
Zr345       O347   2.435       .  S
Zr345       O369   2.437       .  S
Zr345       O371   2.399       .  S
Zr345       O349   2.401       .  S
Zr345       O352   2.395   1_565  S
Zr346       O372   2.436       .  S
Zr346       O373   2.437       .  S
Zr346       O348   2.437       .  S
Zr346       O349   2.370       .  S
Zr346       O350   2.388   1_565  S
O347        H384   0.990       .  S
O348        H379   0.990       .  S
O348        H393   0.990       .  S
O350        H376   0.966       .  S
O351       Zr361   2.372       .  S
O352       Zr361   2.364       .  S
O352        H377   0.966       .  S
C353       C1333   1.467       .  S
C354       C1282   1.508       .  S
C355       C1298   1.463       .  S
O356        H392   0.990       .  S
O357        C359   1.276       .  A
O358        C359   1.290       .  A
C359       C1266   1.488       .  S
O360       Zr361   2.439   1_655  S
O360        H389   0.990       .  S
Zr361       O364   2.436       .  S
Zr361       O365   2.439       .  S
Zr361       O366   2.453       .  S
O362        C367   1.279       .  A
O363        H380   0.990       .  S
O363        H395   0.990   1_455  S
O364        H381   0.990       .  S
O365        H385   0.990       .  S
O365        H394   0.990       .  S
O366        C367   1.287       .  A
C367       C1250   1.471       .  S
O368        H387   0.990       .  S
O368        H391   0.990       .  S
O369        H383   0.990       .  S
O369        H390   0.990       .  S
O370        C374   1.279       .  A
O371        C374   1.282       .  A
O372        H382   0.990       .  S
O373        H386   0.990       .  S
C374       C1314   1.448       .  S
Zr397       O398   2.441       .  S
Zr397       O399   2.491       .  S
Zr397       O400   2.445   1_565  S
Zr397       O403   2.457       .  S
Zr397       O405   2.380       .  S
Zr397       O406   2.378       .  S
Zr397       O407   2.428   1_565  S
Zr397       O408   2.415       .  S
O398        H454   0.990       .  S
O398        H462   0.990   1_565  S
O399        C419   1.296       .  A
O400        C421   1.284       .  A
O401       Zr411   2.406   1_556  S
O401        C420   1.279       .  A
O402       Zr410   2.417   1_556  S
O402        C421   1.280       .  A
O403        C420   1.289       .  A
O404       Zr412   2.431   1_556  S
O404        C419   1.281       .  A
O405       Zr410   2.397   1_566  S
O405       Zr412   2.377   1_556  S
O406       Zr411   2.398   1_556  S
O406       Zr412   2.381   1_556  S
O406        H441   0.966       .  S
O407       Zr410   2.399   1_556  S
O407       Zr427   2.410   1_556  S
O407        H444   0.966       .  S
O408       Zr411   2.386   1_556  S
O408       Zr427   2.409   1_566  S
Zr409       O434   2.440       .  S
Zr409       O428   2.446   1_565  S
Zr409       O436   2.417       .  S
Zr409       O424   2.421   1_565  S
Zr409       O415   2.401       .  S
Zr409       O416   2.407       .  S
Zr409       O417   2.376   1_565  S
Zr409       O418   2.377       .  S
Zr410       O429   2.438       .  S
Zr410       O422   2.435       .  S
Zr410       O423   2.426       .  S
Zr410       O416   2.389   1_545  S
Zr410       O417   2.385       .  S
Zr411       O413   2.436       .  S
Zr411       O435   2.437       .  S
Zr411       O437   2.416       .  S
Zr411       O415   2.383       .  S
Zr411       O418   2.382       .  S
Zr412       O438   2.435       .  S
Zr412       O439   2.435       .  S
Zr412       O414   2.436       .  S
Zr412       O415   2.396       .  S
Zr412       O416   2.402       .  S
O413        H450   0.990       .  S
O414        H445   0.990       .  S
O414        H459   0.990       .  S
O416        H442   0.966       .  S
O417       Zr427   2.364       .  S
O418       Zr427   2.372   1_565  S
O418        H443   0.966       .  S
C419       C1205   1.523       .  S
C420       C1237   1.476       .  S
C421       C1218   1.468       .  S
O422        H458   0.990   1_554  S
O423        C425   1.286       .  A
O424        C425   1.282       .  A
C425       C1157   1.489       .  S
O426       Zr427   2.439   1_556  S
O426        H455   0.990       .  S
Zr427       O430   2.437   1_554  S
Zr427       O431   2.439   1_554  S
Zr427       O432   2.465       .  S
O428        C433   1.286       .  A
O429        H446   0.990   1_554  S
O429        H461   0.990   1_554  S
O430        H447   0.990   1_556  S
O431        H451   0.990   1_556  S
O431        H460   0.990   1_556  S
O432        C433   1.289       .  A
C433       C1170   1.493       .  S
O434        H453   0.990       .  S
O434        H457   0.990       .  S
O435        H449   0.990       .  S
O435        H456   0.990   1_554  S
O436        C440   1.281       .  A
O437        C440   1.282       .  A
O438        H448   0.990       .  S
O439        H452   0.990       .  S
C440       C1189   1.462       .  S
Zr463       O464   2.438       .  S
Zr463       O465   2.429   1_544  S
Zr463       O466   2.449   1_545  S
Zr463       O469   2.459   1_554  S
Zr463       O471   2.386   1_545  S
Zr463       O472   2.383   1_554  S
Zr463       O473   2.408       .  S
Zr463       O474   2.405       .  S
O464        H520   0.990       .  S
O464        H528   0.990       .  S
O465        C485   1.283       .  A
O466        C487   1.289       .  A
O467       Zr477   2.404       .  S
O467        C486   1.282       .  A
O468       Zr476   2.389       .  S
O468        C487   1.276       .  A
O469        C486   1.289       .  A
O470       Zr478   2.474       .  S
O470        C485   1.291       .  A
O471       Zr476   2.389       .  S
O471       Zr478   2.364   1_554  S
O472       Zr477   2.388       .  S
O472       Zr478   2.368   1_545  S
O472        H507   0.966       .  S
O473       Zr476   2.397   1_545  S
O473       Zr493   2.390       .  S
O473        H510   0.966   1_545  S
O474       Zr477   2.383   1_554  S
O474       Zr493   2.391       .  S
Zr475       O500   2.443   1_544  S
Zr475       O494   2.468       .  S
Zr475       O502   2.495   1_554  S
Zr475       O490   2.488   1_545  S
Zr475       O481   2.416   1_554  S
Zr475       O482   2.424   1_545  S
Zr475       O483   2.378       .  S
Zr475       O484   2.386       .  S
Zr476       O495   2.438       .  S
Zr476       O488   2.434       .  S
Zr476       O489   2.410   1_455  S
Zr476       O482   2.387   1_455  S
Zr476       O483   2.375   1_465  S
Zr477       O479   2.434       .  S
Zr477       O501   2.438       .  S
Zr477       O503   2.411   1_455  S
Zr477       O481   2.385   1_455  S
Zr477       O484   2.383   1_456  S
Zr478       O504   2.435       .  S
Zr478       O505   2.435   1_455  S
Zr478       O480   2.437       .  S
Zr478       O481   2.411   1_465  S
Zr478       O482   2.419   1_456  S
O479        H516   0.990       .  S
O480        H511   0.990       .  S
O480        H525   0.990       .  S
O482        H508   0.966       .  S
O483       Zr493   2.375   1_655  S
O484       Zr493   2.387   1_655  S
O484        H509   0.966       .  S
C485       C1106   1.496       .  S
C486       C1093   1.491       .  S
C487       C1077   1.472       .  S
O488        H524   0.989       .  S
O489        C491   1.281       .  A
O490        C491   1.293       .  A
C491       C1138   1.507       .  S
O492       Zr493   2.441       .  S
O492        H521   0.990       .  S
Zr493       O496   2.437       .  S
Zr493       O497   2.441       .  S
Zr493       O498   2.412   1_455  S
O494        C499   1.293       .  A
O495        H512   0.990       .  S
O495        H527   0.990       .  S
O496        H513   0.989       .  S
O497        H517   0.990       .  S
O497        H526   0.989       .  S
O498        C499   1.280       .  A
C499       C1061   1.491       .  S
O500        H519   0.990       .  S
O500        H523   0.989   1_556  S
O501        H515   0.990       .  S
O501        H522   0.990       .  S
O502        C506   1.297       .  A
O503        C506   1.281       .  A
O504        H514   0.990       .  S
O505        H518   0.990       .  S
C506       C1122   1.509       .  S
Zr529       O530   2.439       .  S
Zr529       O531   2.438       .  S
Zr529       O532   2.460       .  S
Zr529       O535   2.458       .  S
Zr529       O537   2.385       .  S
Zr529       O538   2.379       .  S
Zr529       O539   2.410       .  S
Zr529       O540   2.409       .  S
O530        H586   0.990       .  S
O530        H594   0.990       .  S
O531        C551   1.287       .  A
O532        C553   1.290       .  A
O533       Zr543   2.405       .  S
O533        C552   1.279       .  A
O534       Zr542   2.411       .  S
O534        C553   1.279       .  A
O535        C552   1.289       .  A
O536       Zr544   2.410       .  S
O536        C551   1.278       .  A
O537       Zr542   2.388       .  S
O537       Zr544   2.381       .  S
O538       Zr543   2.376       .  S
O538       Zr544   2.373       .  S
O538        H573   0.966       .  S
O539       Zr542   2.394       .  S
O539       Zr559   2.397       .  S
O539        H576   0.966       .  S
O540       Zr543   2.385       .  S
O540       Zr559   2.408       .  S
Zr541       O566   2.444       .  S
Zr541       O560   2.447       .  S
Zr541       O568   2.407       .  S
Zr541       O556   2.410       .  S
Zr541       O547   2.397       .  S
Zr541       O548   2.406       .  S
Zr541       O549   2.375       .  S
Zr541       O550   2.378       .  S
Zr542       O561   2.436       .  S
Zr542       O554   2.435       .  S
Zr542       O555   2.408       .  S
Zr542       O548   2.385       .  S
Zr542       O549   2.383       .  S
Zr543       O545   2.434       .  S
Zr543       O567   2.437       .  S
Zr543       O569   2.386       .  S
Zr543       O547   2.378       .  S
Zr543       O550   2.382       .  S
Zr544       O570   2.436       .  S
Zr544       O571   2.436       .  S
Zr544       O546   2.437       .  S
Zr544       O547   2.392       .  S
Zr544       O548   2.383       .  S
O545        H582   0.990       .  S
O546        H577   0.990       .  S
O546        H591   0.990       .  S
O548        H574   0.966       .  S
O549       Zr559   2.373       .  S
O550       Zr559   2.371       .  S
O550        H575   0.966       .  S
C551       C1781   1.475       .  S
C552       C1458   1.487       .  S
C553       C1573   1.499       .  S
O554        H590   0.990       .  S
O555        C557   1.284       .  A
O556        C557   1.278       .  A
C557       C1397   1.467       .  S
O558       Zr559   2.439       .  S
O558        H587   0.990       .  S
Zr559       O562   2.437       .  S
Zr559       O563   2.439       .  S
Zr559       O564   2.449       .  S
O560        C565   1.287       .  A
O561        H578   0.990       .  S
O561        H593   0.990       .  S
O562        H579   0.990       .  S
O563        H583   0.990       .  S
O563        H592   0.989       .  S
O564        C565   1.287       .  A
C565       C1141   1.502       .  S
O566        H585   0.990       .  S
O566        H589   0.989       .  S
O567        H581   0.989       .  S
O567        H588   0.989       .  S
O568        C572   1.280       .  A
O569        C572   1.275       .  A
O570        H580   0.990       .  S
O571        H584   0.990       .  S
C572       C1330   1.461       .  S
Zr595       O596   2.437       .  S
Zr595       O597   2.414       .  S
Zr595       O598   2.508       .  S
Zr595       O601   2.492       .  S
Zr595       O603   2.390       .  S
Zr595       O604   2.390       .  S
Zr595       O605   2.406       .  S
Zr595       O606   2.412       .  S
O596        H652   0.990       .  S
O596        H660   0.990       .  S
O597        C617   1.282       .  A
O598        C619   1.299       .  A
O599       Zr609   2.415       .  S
O599        C618   1.282       .  A
O600       Zr608   2.394       .  S
O600        C619   1.275       .  A
O601        C618   1.297       .  A
O602       Zr610   2.424       .  S
O602        C617   1.282       .  A
O603       Zr608   2.388       .  S
O603       Zr610   2.379       .  S
O604       Zr609   2.381       .  S
O604       Zr610   2.369       .  S
O604        H639   0.966       .  S
O605       Zr608   2.393       .  S
O605       Zr625   2.391       .  S
O605        H642   0.966       .  S
O606       Zr609   2.394       .  S
O606       Zr625   2.402       .  S
Zr607       O632   2.437       .  S
Zr607       O626   2.418       .  S
Zr607       O634   2.447       .  S
Zr607       O622   2.446       .  S
Zr607       O613   2.402       .  S
Zr607       O614   2.403       .  S
Zr607       O615   2.373       .  S
Zr607       O616   2.385       .  S
Zr608       O627   2.439       .  S
Zr608       O620   2.434       .  S
Zr608       O621   2.407       .  S
Zr608       O614   2.389       .  S
Zr608       O615   2.367       .  S
Zr609       O611   2.434       .  S
Zr609       O633   2.437       .  S
Zr609       O635   2.416       .  S
Zr609       O613   2.391       .  S
Zr609       O616   2.380       .  S
Zr610       O636   2.436       .  S
Zr610       O637   2.436       .  S
Zr610       O612   2.436       .  S
Zr610       O613   2.398       .  S
Zr610       O614   2.393       .  S
O611        H648   0.990       .  S
O612        H643   0.990       .  S
O612        H657   0.990       .  S
O614        H640   0.966       .  S
O615       Zr625   2.365       .  S
O616       Zr625   2.370       .  S
O616        H641   0.965       .  S
C617       C1429   1.472       .  S
C618       C1125   1.510       .  S
C619       C1685   1.517       .  S
O620        H656   0.990       .  S
O621        C623   1.281       .  A
O622        C623   1.288       .  A
C623       C1746   1.479       .  S
O624       Zr625   2.441       .  S
O624        H653   0.990       .  S
Zr625       O628   2.437       .  S
Zr625       O629   2.441       .  S
Zr625       O630   2.436       .  S
O626        C631   1.282       .  A
O627        H644   0.990       .  S
O627        H659   0.990       .  S
O628        H645   0.990       .  S
O629        H649   0.990       .  S
O629        H658   0.989       .  S
O630        C631   1.285       .  A
C631       C1477   1.491       .  S
O632        H651   0.990       .  S
O632        H655   0.990       .  S
O633        H647   0.990       .  S
O633        H654   0.990       .  S
O634        C638   1.287       .  A
O635        C638   1.283       .  A
O636        H646   0.990       .  S
O637        H650   0.990       .  S
C638       C1221   1.481       .  S
Zr661       O662   2.439       .  S
Zr661       O663   2.433       .  S
Zr661       O664   2.461       .  S
Zr661       O667   2.425       .  S
Zr661       O669   2.378       .  S
Zr661       O670   2.388       .  S
Zr661       O671   2.399       .  S
Zr661       O672   2.408       .  S
O662        H718   0.990       .  S
O662        H726   0.990       .  S
O663        C683   1.284       .  A
O664        C685   1.288       .  A
O665       Zr675   2.380       .  S
O665        C684   1.274       .  A
O666       Zr674   2.406       .  S
O666        C685   1.279       .  A
O667        C684   1.284       .  A
O668       Zr676   2.445       .  S
O668        C683   1.286       .  A
O669       Zr674   2.382       .  S
O669       Zr676   2.373       .  S
O670       Zr675   2.391       .  S
O670       Zr676   2.369       .  S
O670        H705   0.966       .  S
O671       Zr674   2.389       .  S
O671       Zr691   2.395       .  S
O671        H708   0.966       .  S
O672       Zr675   2.390       .  S
O672       Zr691   2.387       .  S
Zr673       O698   2.438       .  S
Zr673       O692   2.449       .  S
Zr673       O700   2.485       .  S
Zr673       O688   2.433       .  S
Zr673       O679   2.393       .  S
Zr673       O680   2.420       .  S
Zr673       O681   2.383       .  S
Zr673       O682   2.374       .  S
Zr674       O693   2.439       .  S
Zr674       O686   2.436       .  S
Zr674       O687   2.390       .  S
Zr674       O680   2.394       .  S
Zr674       O681   2.378       .  S
Zr675       O677   2.435       .  S
Zr675       O699   2.437       .  S
Zr675       O701   2.418       .  S
Zr675       O679   2.373       .  S
Zr675       O682   2.374       .  S
Zr676       O702   2.435       .  S
Zr676       O703   2.435       .  S
Zr676       O678   2.436       .  S
Zr676       O679   2.405       .  S
Zr676       O680   2.403       .  S
O677        H714   0.990       .  S
O678        H709   0.990       .  S
O678        H723   0.990       .  S
O680        H706   0.966       .  S
O681       Zr691   2.364       .  S
O682       Zr691   2.389       .  S
O682        H707   0.966       .  S
C683       C1669   1.481       .  S
C684       C1317   1.472       .  S
C685       C1797   1.477       .  S
O686        H722   0.990       .  S
O687        C689   1.278       .  A
O688        C689   1.285       .  A
C689       C1538   1.467       .  S
O690       Zr691   2.440       .  S
O690        H719   0.990       .  S
Zr691       O694   2.438       .  S
Zr691       O695   2.441       .  S
Zr691       O696   2.416       .  S
O692        C697   1.288       .  A
O693        H710   0.990       .  S
O693        H725   0.990       .  S
O694        H711   0.990       .  S
O695        H715   0.990       .  S
O695        H724   0.989       .  S
O696        C697   1.280       .  A
C697       C1234   1.474       .  S
O698        H717   0.989       .  S
O698        H721   0.989       .  S
O699        H713   0.990       .  S
O699        H720   0.989       .  S
O700        C704   1.294       .  A
O701        C704   1.281       .  A
O702        H712   0.990       .  S
O703        H716   0.990       .  S
C704       C1109   1.495       .  S
Zr727       O728   2.439       .  S
Zr727       O729   2.471       .  S
Zr727       O730   2.534       .  S
Zr727       O733   2.476       .  S
Zr727       O735   2.382       .  S
Zr727       O736   2.394       .  S
Zr727       O737   2.412       .  S
Zr727       O738   2.428       .  S
O728        H784   0.990       .  S
O728        H792   0.990       .  S
O729        C749   1.293       .  A
O730        C751   1.303       .  A
O731       Zr741   2.398       .  S
O731        C750   1.279       .  A
O732       Zr740   2.426       .  S
O732        C751   1.282       .  A
O733        C750   1.292       .  A
O734       Zr742   2.377       .  S
O734        C749   1.272       .  A
O735       Zr740   2.390       .  S
O735       Zr742   2.393       .  S
O736       Zr741   2.385       .  S
O736       Zr742   2.379       .  S
O736        H771   0.965       .  S
O737       Zr740   2.393       .  S
O737       Zr757   2.404       .  S
O737        H774   0.965       .  S
O738       Zr741   2.398       .  S
O738       Zr757   2.403       .  S
Zr739       O764   2.449       .  S
Zr739       O758   2.433       .  S
Zr739       O766   2.455       .  S
Zr739       O754   2.402       .  S
Zr739       O745   2.381       .  S
Zr739       O746   2.409       .  S
Zr739       O747   2.387       .  S
Zr739       O748   2.376       .  S
Zr740       O759   2.437       .  S
Zr740       O752   2.435       .  S
Zr740       O753   2.396       .  S
Zr740       O746   2.401       .  S
Zr740       O747   2.390       .  S
Zr741       O743   2.434       .  S
Zr741       O765   2.439       .  S
Zr741       O767   2.422       .  S
Zr741       O745   2.373       .  S
Zr741       O748   2.379       .  S
Zr742       O768   2.437       .  S
Zr742       O769   2.437       .  S
Zr742       O744   2.437       .  S
Zr742       O745   2.382       .  S
Zr742       O746   2.370       .  S
O743        H780   0.990       .  S
O744        H775   0.990       .  S
O744        H789   0.990       .  S
O746        H772   0.965       .  S
O747       Zr757   2.363       .  S
O748       Zr757   2.377       .  S
O748        H773   0.966       .  S
C749       C1378   1.476       .  S
C750       C1090   1.489       .  S
C751       C1618   1.517       .  S
O752        H788   0.990       .  S
O753        C755   1.279       .  A
O754        C755   1.278       .  A
C755       C1765   1.446       .  S
O756       Zr757   2.438       .  S
O756        H785   0.990       .  S
Zr757       O760   2.438       .  S
Zr757       O761   2.438       .  S
Zr757       O762   2.447       .  S
O758        C763   1.284       .  A
O759        H776   0.990       .  S
O759        H791   0.990       .  S
O760        H777   0.990       .  S
O761        H781   0.990       .  S
O761        H790   0.990       .  S
O762        C763   1.287       .  A
C763       C1509   1.490       .  S
O764        H783   0.989       .  S
O764        H787   0.989       .  S
O765        H779   0.990       .  S
O765        H786   0.988       .  S
O766        C770   1.288       .  A
O767        C770   1.283       .  A
O768        H778   0.990       .  S
O769        H782   0.990       .  S
C770       C1253   1.493       .  S
Zr793       O794   2.438       .  S
Zr793       O795   2.411       .  S
Zr793       O796   2.422       .  S
Zr793       O799   2.391       .  S
Zr793       O801   2.372       .  S
Zr793       O802   2.381       .  S
Zr793       O803   2.391       .  S
Zr793       O804   2.399       .  S
O794        H850   0.990       .  S
O794        H858   0.990       .  S
O795        C815   1.280       .  A
O796        C817   1.281       .  A
O797       Zr807   2.381       .  S
O797        C816   1.274       .  A
O798       Zr806   2.409       .  S
O798        C817   1.280       .  A
O799        C816   1.277       .  A
O800       Zr808   2.435       .  S
O800        C815   1.285       .  A
O801       Zr806   2.370       .  S
O801       Zr808   2.368       .  S
O802       Zr807   2.376       .  S
O802       Zr808   2.360       .  S
O802        H837   0.964       .  S
O803       Zr806   2.384       .  S
O803       Zr823   2.398       .  S
O803        H840   0.966       .  S
O804       Zr807   2.387       .  S
O804       Zr823   2.390       .  S
Zr805       O830   2.440       .  S
Zr805       O824   2.406       .  S
Zr805       O832   2.482       .  S
Zr805       O820   2.453       .  S
Zr805       O811   2.392       .  S
Zr805       O812   2.407       .  S
Zr805       O813   2.385       .  S
Zr805       O814   2.382       .  S
Zr806       O825   2.438       .  S
Zr806       O818   2.434       .  S
Zr806       O819   2.384       .  S
Zr806       O812   2.399       .  S
Zr806       O813   2.381       .  S
Zr807       O809   2.435       .  S
Zr807       O831   2.438       .  S
Zr807       O833   2.396       .  S
Zr807       O811   2.385       .  S
Zr807       O814   2.369       .  S
Zr808       O834   2.435       .  S
Zr808       O835   2.435       .  S
Zr808       O810   2.435       .  S
Zr808       O811   2.395       .  S
Zr808       O812   2.395       .  S
O809        H846   0.990       .  S
O810        H841   0.990       .  S
O810        H855   0.990       .  S
O812        H838   0.966       .  S
O813       Zr823   2.368       .  S
O814       Zr823   2.383       .  S
O814        H839   0.966       .  S
C815       C1522   1.471       .  S
C816       C1730   1.427       .  S
C817       C1186   1.463       .  S
O818        H854   0.989       .  S
O819        C821   1.275       .  A
O820        C821   1.290       .  A
C821       C1074   1.473       .  S
O822       Zr823   2.440       .  S
O822        H851   0.990       .  S
Zr823       O826   2.437       .  S
Zr823       O827   2.439       .  S
Zr823       O828   2.416       .  S
O824        C829   1.279       .  A
O825        H842   0.990       .  S
O825        H857   0.990       .  S
O826        H843   0.990       .  S
O827        H847   0.990       .  S
O827        H856   0.990       .  S
O828        C829   1.281       .  A
C829       C1349   1.451       .  S
O830        H849   0.990       .  S
O830        H853   0.990       .  S
O831        H845   0.990       .  S
O831        H852   0.990       .  S
O832        C836   1.293       .  A
O833        C836   1.277       .  A
O834        H844   0.990       .  S
O835        H848   0.990       .  S
C836       C1701   1.481       .  S
Zr859       O860   2.439       .  S
Zr859       O861   2.407       .  S
Zr859       O862   2.433       .  S
Zr859       O865   2.425       .  S
Zr859       O867   2.383       .  S
Zr859       O868   2.380       .  S
Zr859       O869   2.391       .  S
Zr859       O870   2.396       .  S
O860        H916   0.990       .  S
O860        H924   0.990       .  S
O861        C881   1.279       .  A
O862        C883   1.283       .  A
O863       Zr873   2.417       .  S
O863        C882   1.281       .  A
O864       Zr872   2.384       .  S
O864        C883   1.275       .  A
O865        C882   1.283       .  A
O866       Zr874   2.437       .  S
O866        C881   1.285       .  A
O867       Zr872   2.381       .  S
O867       Zr874   2.372       .  S
O868       Zr873   2.378       .  S
O868       Zr874   2.367       .  S
O868        H903   0.966       .  S
O869       Zr872   2.393       .  S
O869       Zr889   2.382       .  S
O869        H906   0.966       .  S
O870       Zr873   2.386       .  S
O870       Zr889   2.386       .  S
Zr871       O896   2.440       .  S
Zr871       O890   2.422       .  S
Zr871       O898   2.480       .  S
Zr871       O886   2.495       .  S
Zr871       O877   2.409       .  S
Zr871       O878   2.408       .  S
Zr871       O879   2.376       .  S
Zr871       O880   2.393       .  S
Zr872       O891   2.439       .  S
Zr872       O884   2.434       .  S
Zr872       O885   2.393       .  S
Zr872       O878   2.387       .  S
Zr872       O879   2.374       .  S
Zr873       O875   2.434       .  S
Zr873       O897   2.437       .  S
Zr873       O899   2.406       .  S
Zr873       O877   2.392       .  S
Zr873       O880   2.385       .  S
Zr874       O900   2.436       .  S
Zr874       O901   2.435       .  S
Zr874       O876   2.436       .  S
Zr874       O877   2.396       .  S
Zr874       O878   2.405       .  S
O875        H912   0.990       .  S
O876        H907   0.990       .  S
O876        H921   0.990       .  S
O878        H904   0.966       .  S
O879       Zr889   2.375       .  S
O880       Zr889   2.381       .  S
O880        H905   0.966       .  S
C881       C1589   1.475       .  S
C882       C1154   1.462       .  S
C883       C1813   1.452       .  S
O884        H920   0.989       .  S
O885        C887   1.275       .  A
O886        C887   1.297       .  A
C887       C1714   1.509       .  S
O888       Zr889   2.440       .  S
O888        H917   0.990       .  S
Zr889       O892   2.438       .  S
Zr889       O893   2.439       .  S
Zr889       O894   2.394       .  S
O890        C895   1.283       .  A
O891        H908   0.990       .  S
O891        H923   0.990       .  S
O892        H909   0.990       .  S
O893        H913   0.990       .  S
O893        H922   0.990       .  S
O894        C895   1.277       .  A
C895       C1301   1.457       .  S
O896        H915   0.990       .  S
O896        H919   0.990       .  S
O897        H911   0.990       .  S
O897        H918   0.989       .  S
O898        C902   1.295       .  A
O899        C902   1.280       .  A
O900        H910   0.990       .  S
O901        H914   0.990       .  S
C902       C1058   1.493       .  S
Zr925       O926   2.439       .  S
Zr925       O927   2.461       .  S
Zr925       O928   2.474       .  S
Zr925       O931   2.387       .  S
Zr925       O933   2.373       .  S
Zr925       O934   2.396       .  S
Zr925       O935   2.402       .  S
Zr925       O936   2.417       .  S
O926        H982   0.989       .  S
O926        H990   0.990       .  S
O927        C947   1.288       .  A
O928        C949   1.289       .  A
O929       Zr939   2.405       .  S
O929        C948   1.280       .  A
O930       Zr938   2.409       .  S
O930        C949   1.280       .  A
O931        C948   1.274       .  A
O932       Zr940   2.441       .  S
O932        C947   1.284       .  A
O933       Zr938   2.391       .  S
O933       Zr940   2.388       .  S
O934       Zr939   2.404       .  S
O934       Zr940   2.365       .  S
O934        H969   0.966       .  S
O935       Zr938   2.389       .  S
O935       Zr955   2.376       .  S
O935        H972   0.964       .  S
O936       Zr939   2.393       .  S
O936       Zr955   2.376       .  S
Zr937       O962   2.438       .  S
Zr937       O956   2.421       .  S
Zr937       O964   2.496       .  S
Zr937       O952   2.464       .  S
Zr937       O943   2.404       .  S
Zr937       O944   2.413       .  S
Zr937       O945   2.383       .  S
Zr937       O946   2.383       .  S
Zr938       O957   2.440       .  S
Zr938       O950   2.434       .  S
Zr938       O951   2.388       .  S
Zr938       O944   2.396       .  S
Zr938       O945   2.383       .  S
Zr939       O941   2.436       .  S
Zr939       O963   2.436       .  S
Zr939       O965   2.455       .  S
Zr939       O943   2.386       .  S
Zr939       O946   2.375       .  S
Zr940       O966   2.436       .  S
Zr940       O967   2.435       .  S
Zr940       O942   2.435       .  S
Zr940       O943   2.407       .  S
Zr940       O944   2.401       .  S
O941        H978   0.990       .  S
O942        H973   0.990       .  S
O942        H987   0.990       .  S
O944        H970   0.966       .  S
O945       Zr955   2.375       .  S
O946       Zr955   2.384       .  S
O946        H971   0.966       .  S
C947       C1173   1.505       .  S
C948       C1554   1.432       .  S
C949       C1442   1.502       .  S
O950        H986   0.990       .  S
O951        C953   1.277       .  A
O952        C953   1.291       .  A
C953       C1269   1.481       .  S
O954       Zr955   2.441       .  S
O954        H983   0.990       .  S
Zr955       O958   2.439       .  S
Zr955       O959   2.440       .  S
Zr955       O960   2.386       .  S
O956        C961   1.282       .  A
O957        H974   0.990       .  S
O957        H989   0.990       .  S
O958        H975   0.990       .  S
O959        H979   0.990       .  S
O959        H988   0.989       .  S
O960        C961   1.275       .  A
C961       C1634   1.453       .  S
O962        H981   0.990       .  S
O962        H985   0.990       .  S
O963        H977   0.990       .  S
O963        H984   0.990       .  S
O964        C968   1.296       .  A
O965        C968   1.289       .  A
O966        H976   0.990       .  S
O967        H980   0.990       .  S
C968       C1365   1.532       .  S
Zr991       O992   2.443       .  S
Zr991       O993   2.475       .  S
Zr991       O994   2.444       .  S
Zr991       O997   2.412       .  S
Zr991       O999   2.380       .  S
Zr991      O1000   2.376       .  S
Zr991      O1001   2.408       .  S
Zr991      O1002   2.415       .  S
O992       H1048   0.990       .  S
O992       H1056   0.991       .  S
O993       C1013   1.291       .  A
O994       C1015   1.284       .  A
O995      Zr1005   2.417       .  S
O995       C1014   1.281       .  A
O996      Zr1004   2.433       .  S
O996       C1015   1.284       .  A
O997       C1014   1.280       .  A
O998      Zr1006   2.450       .  S
O998       C1013   1.288       .  A
O999      Zr1004   2.400       .  S
O999      Zr1006   2.383       .  S
O1000     Zr1005   2.389       .  S
O1000     Zr1006   2.371       .  S
O1000      H1035   0.966       .  S
O1001     Zr1004   2.390       .  S
O1001     Zr1021   2.386       .  S
O1001      H1038   0.964       .  S
O1002     Zr1005   2.378       .  S
O1002     Zr1021   2.392       .  S
Zr1003     O1028   2.437       .  S
Zr1003     O1022   2.470       .  S
Zr1003     O1030   2.557       .  S
Zr1003     O1018   2.526       .  S
Zr1003     O1009   2.412       .  S
Zr1003     O1010   2.428       .  S
Zr1003     O1011   2.389       .  S
Zr1003     O1012   2.394       .  S
Zr1004     O1023   2.432       .  S
Zr1004     O1016   2.435       .  S
Zr1004     O1017   2.421       .  S
Zr1004     O1010   2.408       .  S
Zr1004     O1011   2.387       .  S
Zr1005     O1007   2.435       .  S
Zr1005     O1029   2.439       .  S
Zr1005     O1031   2.404       .  S
Zr1005     O1009   2.396       .  S
Zr1005     O1012   2.394       .  S
Zr1006     O1032   2.435       .  S
Zr1006     O1033   2.435       .  S
Zr1006     O1008   2.436       .  S
Zr1006     O1009   2.404       .  S
Zr1006     O1010   2.408       .  S
O1007      H1044   0.990       .  S
O1008      H1039   0.990       .  S
O1008      H1053   0.990       .  S
O1010      H1036   0.966       .  S
O1011     Zr1021   2.376       .  S
O1012     Zr1021   2.383       .  S
O1012      H1037   0.966       .  S
C1013      C1285   1.526       .  S
C1014      C1650   1.458       .  S
C1015      C1493   1.475       .  S
O1016      H1052   0.990       .  S
O1017      C1019   1.281       .  A
O1018      C1019   1.303       .  A
C1019      C1202   1.525       .  S
O1020     Zr1021   2.437       .  S
O1020      H1049   0.990       .  S
Zr1021     O1024   2.437       .  S
Zr1021     O1025   2.441       .  S
Zr1021     O1026   2.410       .  S
O1022      C1027   1.294       .  A
O1023      H1040   0.989       .  S
O1023      H1055   0.989       .  S
O1024      H1041   0.989       .  S
O1025      H1045   0.990       .  S
O1025      H1054   0.990       .  S
O1026      C1027   1.278       .  A
C1027      C1605   1.494       .  S
O1028      H1047   0.990       .  S
O1028      H1051   0.990       .  S
O1029      H1043   0.990       .  S
O1029      H1050   0.990       .  S
O1030      C1034   1.310       .  A
O1031      C1034   1.279       .  A
O1032      H1042   0.990       .  S
O1033      H1046   0.990       .  S
C1034      C1413   1.527       .  S
C1057      C1058   1.402       .  A
C1057      C1062   1.410       .  A
C1057      H1064   1.084       .  S
C1058      C1059   1.423       .  A
C1059      C1060   1.405       .  A
C1059      C1066   1.506       .  S
C1060      C1061   1.399       .  A
C1060      H1065   1.084       .  S
C1061      C1062   1.422       .  A
C1062      C1063   1.507       .  S
C1063      H1067   1.111       .  S
C1063      H1068   1.108       .  S
C1063      H1069   1.111       .  S
C1066      H1070   1.110       .  S
C1066      H1071   1.106       .  S
C1066      H1072   1.111       .  S
C1073      C1074   1.400       .  A
C1073      C1078   1.401       .  A
C1073      H1080   1.084       .  S
C1074      C1075   1.419       .  A
C1075      C1076   1.398       .  A
C1075      C1082   1.509       .  S
C1076      C1077   1.398       .  A
C1076      H1081   1.085       .  S
C1077      C1078   1.419       .  A
C1078      C1079   1.508       .  S
C1079      H1083   1.110       .  S
C1079      H1084   1.110       .  S
C1079      H1085   1.108       .  S
C1082      H1086   1.109       .  S
C1082      H1087   1.110       .  S
C1082      H1088   1.111       .  S
C1089      C1090   1.409       .  A
C1089      C1094   1.419       .  A
C1089      H1096   1.084       .  S
C1090      C1091   1.417       .  A
C1091      C1092   1.390       .  A
C1091      C1098   1.508       .  S
C1092      C1093   1.402       .  A
C1092      H1097   1.084       .  S
C1093      C1094   1.417       .  A
C1094      C1095   1.504       .  S
C1095      H1099   1.111       .  S
C1095      H1100   1.110       .  S
C1095      H1101   1.110       .  S
C1098      H1102   1.106       .  S
C1098      H1103   1.110       .  S
C1098      H1104   1.111       .  S
C1105      C1106   1.405       .  A
C1105      C1110   1.414       .  A
C1105      H1112   1.084       .  S
C1106      C1107   1.417       .  A
C1107      C1108   1.411       .  A
C1107      C1114   1.508       .  S
C1108      C1109   1.406       .  A
C1108      H1113   1.084       .  S
C1109      C1110   1.417       .  A
C1110      C1111   1.504       .  S
C1111      H1115   1.111       .  S
C1111      H1116   1.108       .  S
C1111      H1117   1.110       .  S
C1114      H1118   1.110       .  S
C1114      H1119   1.111       .  S
C1114      H1120   1.111       .  S
C1121      C1122   1.414       .  A
C1121      C1126   1.414       .  A
C1121      H1128   1.084       .  S
C1122      C1123   1.416       .  A
C1123      C1124   1.412       .  A
C1123      C1130   1.505       .  S
C1124      C1125   1.414       .  A
C1124      H1129   1.084       .  S
C1125      C1126   1.417       .  A
C1126      C1127   1.508       .  S
C1127      H1131   1.111       .  S
C1127      H1132   1.111       .  S
C1127      H1133   1.110       .  S
C1130      H1134   1.109       .  S
C1130      H1135   1.109       .  S
C1130      H1136   1.111       .  S
C1137      C1138   1.411       .  A
C1137      C1142   1.407       .  A
C1137      H1144   1.084       .  S
C1138      C1139   1.418       .  A
C1139      C1140   1.416       .  A
C1139      C1146   1.506       .  S
C1140      C1141   1.411       .  A
C1140      H1145   1.084       .  S
C1141      C1142   1.418       .  A
C1142      C1143   1.510       .  S
C1143      H1147   1.111       .  S
C1143      H1148   1.111       .  S
C1143      H1149   1.109       .  S
C1146      H1150   1.110       .  S
C1146      H1151   1.111       .  S
C1146      H1152   1.111       .  S
C1153      C1154   1.398       .  A
C1153      C1158   1.404       .  A
C1153      H1160   1.085       .  S
C1154      C1155   1.409       .  A
C1155      C1156   1.395       .  A
C1155      C1162   1.508       .  S
C1156      C1157   1.407       .  A
C1156      H1161   1.084       .  S
C1157      C1158   1.423       .  A
C1158      C1159   1.507       .  S
C1159      H1163   1.111       .  S
C1159      H1164   1.108       .  S
C1159      H1165   1.110       .  S
C1162      H1166   1.107       .  S
C1162      H1167   1.111       .  S
C1162      H1168   1.110       .  S
C1169      C1170   1.403       .  A
C1169      C1174   1.412       .  A
C1169      H1176   1.084       .  S
C1170      C1171   1.413       .  A
C1171      C1172   1.414       .  A
C1171      C1178   1.506       .  S
C1172      C1173   1.410       .  A
C1172      H1177   1.082       .  S
C1173      C1174   1.421       .  A
C1174      C1175   1.507       .  S
C1175      H1179   1.111       .  S
C1175      H1180   1.109       .  S
C1175      H1181   1.110       .  S
C1178      H1182   1.110       .  S
C1178      H1183   1.111       .  S
C1178      H1184   1.111       .  S
C1185      C1186   1.400       .  A
C1185      C1190   1.399       .  A
C1185      H1192   1.085       .  S
C1186      C1187   1.414       .  A
C1187      C1188   1.397       .  A
C1187      C1194   1.508       .  S
C1188      C1189   1.400       .  A
C1188      H1193   1.085       .  S
C1189      C1190   1.414       .  A
C1190      C1191   1.508       .  S
C1191      H1195   1.110       .  S
C1191      H1196   1.108       .  S
C1191      H1197   1.110       .  S
C1194      H1198   1.108       .  S
C1194      H1199   1.110       .  S
C1194      H1200   1.111       .  S
C1201      C1202   1.406       .  A
C1201      C1206   1.421       .  A
C1201      H1208   1.084       .  S
C1202      C1203   1.431       .  A
C1203      C1204   1.414       .  A
C1203      C1210   1.506       .  S
C1204      C1205   1.403       .  A
C1204      H1209   1.084       .  S
C1205      C1206   1.431       .  A
C1206      C1207   1.507       .  S
C1207      H1211   1.111       .  S
C1207      H1212   1.110       .  S
C1207      H1213   1.110       .  S
C1210      H1214   1.109       .  S
C1210      H1215   1.108       .  S
C1210      H1216   1.111       .  S
C1217      C1218   1.402       .  A
C1217      C1222   1.406       .  A
C1217      H1224   1.084       .  S
C1218      C1219   1.407       .  A
C1219      C1220   1.400       .  A
C1219      C1226   1.508       .  S
C1220      C1221   1.407       .  A
C1220      H1225   1.084       .  S
C1221      C1222   1.415       .  A
C1222      C1223   1.506       .  S
C1223      H1227   1.111       .  S
C1223      H1228   1.110       .  S
C1223      H1229   1.110       .  S
C1226      H1230   1.110   1_545  S
C1226      H1231   1.111       .  S
C1226      H1232   1.111       .  S
C1233      C1234   1.405       .  A
C1233      C1238   1.405       .  A
C1233      H1240   1.084       .  S
C1234      C1235   1.409       .  A
C1235      C1236   1.405       .  A
C1235      C1242   1.507       .  S
C1236      C1237   1.406       .  A
C1236      H1241   1.084       .  S
C1237      C1238   1.411       .  A
C1238      C1239   1.507       .  S
C1239      H1243   1.111       .  S
C1239      H1244   1.111       .  S
C1239      H1245   1.110       .  S
C1242      H1246   1.110       .  S
C1242      H1247   1.111       .  S
C1242      H1248   1.111       .  S
C1249      C1250   1.398       .  A
C1249      C1254   1.407       .  A
C1249      H1256   1.084       .  S
C1250      C1251   1.409       .  A
C1251      C1252   1.404       .  A
C1251      C1258   1.508       .  S
C1252      C1253   1.409       .  A
C1252      H1257   1.084       .  S
C1253      C1254   1.421       .  A
C1254      C1255   1.503       .  S
C1255      H1259   1.111       .  S
C1255      H1260   1.109       .  S
C1255      H1261   1.110       .  S
C1258      H1262   1.111       .  S
C1258      H1263   1.110       .  S
C1258      H1264   1.111       .  S
C1265      C1266   1.412       .  A
C1265      C1270   1.401       .  A
C1265      H1272   1.084       .  S
C1266      C1267   1.413       .  A
C1267      C1268   1.406       .  A
C1267      C1274   1.508       .  S
C1268      C1269   1.410       .  A
C1268      H1273   1.084       .  S
C1269      C1270   1.409       .  A
C1270      C1271   1.507       .  S
C1271      H1275   1.111       .  S
C1271      H1276   1.110       .  S
C1271      H1277   1.110       .  S
C1274      H1278   1.110       .  S
C1274      H1279   1.111       .  S
C1274      H1280   1.111       .  S
C1281      C1282   1.408       .  A
C1281      C1286   1.421       .  A
C1281      H1288   1.084       .  S
C1282      C1283   1.414       .  A
C1283      C1284   1.413       .  A
C1283      C1290   1.507       .  S
C1284      C1285   1.414       .  A
C1284      H1289   1.083       .  S
C1285      C1286   1.428       .  A
C1286      C1287   1.507       .  S
C1287      H1291   1.111       .  S
C1287      H1292   1.110       .  S
C1287      H1293   1.110       .  S
C1290      H1294   1.111       .  S
C1290      H1295   1.109       .  S
C1290      H1296   1.111       .  S
C1297      C1298   1.404       .  A
C1297      C1302   1.396       .  A
C1297      H1304   1.085       .  S
C1298      C1299   1.407       .  A
C1299      C1300   1.397       .  A
C1299      C1306   1.499       .  S
C1300      C1301   1.400       .  A
C1300      H1305   1.085       .  S
C1301      C1302   1.409       .  A
C1302      C1303   1.509       .  S
C1303      H1307   1.111       .  S
C1303      H1308   1.111       .  S
C1303      H1309   1.110       .  S
C1306      H1310   1.109       .  S
C1306      H1311   1.111       .  S
C1306      H1312   1.110       .  S
C1313      C1314   1.391       .  A
C1313      C1318   1.383       .  A
C1313      H1320   1.086       .  S
C1314      C1315   1.406       .  A
C1315      C1316   1.402       .  A
C1315      C1322   1.505       .  S
C1316      C1317   1.409       .  A
C1316      H1321   1.084       .  S
C1317      C1318   1.423       .  A
C1318      C1319   1.511       .  S
C1319      H1323   1.111       .  S
C1319      H1324   1.108       .  S
C1319      H1325   1.108       .  S
C1322      H1326   1.110       .  S
C1322      H1327   1.110       .  S
C1322      H1328   1.111       .  S
C1329      C1330   1.402       .  A
C1329      C1334   1.397       .  A
C1329      H1336   1.084       .  S
C1330      C1331   1.413       .  A
C1331      C1332   1.387       .  A
C1331      C1338   1.512       .  S
C1332      C1333   1.399       .  A
C1332      H1337   1.079       .  S
C1333      C1334   1.417       .  A
C1334      C1335   1.509       .  S
C1335      H1339   1.111       .  S
C1335      H1340   1.110       .  S
C1335      H1341   1.109       .  S
C1338      H1342   1.107       .  S
C1338      H1343   1.110       .  S
C1338      H1344   1.109       .  S
C1345      C1346   1.405       .  A
C1345      C1350   1.396       .  A
C1345      H1352   1.084       .  S
C1346      C1347   1.419       .  A
C1347      C1348   1.397       .  A
C1347      C1354   1.508       .  S
C1348      C1349   1.396       .  A
C1348      H1353   1.085       .  S
C1349      C1350   1.405       .  A
C1350      C1351   1.505       .  S
C1351      H1355   1.111       .  S
C1351      H1356   1.108       .  S
C1351      H1357   1.110       .  S
C1354      H1358   1.110       .  S
C1354      H1359   1.109       .  S
C1354      H1360   1.110       .  S
C1361      C1362   1.409       .  A
C1361      C1366   1.415       .  A
C1361      H1368   1.084       .  S
C1362      C1363   1.422       .  A
C1363      C1364   1.429       .  A
C1363      C1370   1.504       .  S
C1364      C1365   1.416       .  A
C1364      H1369   1.083       .  S
C1365      C1366   1.427       .  A
C1366      C1367   1.509       .  S
C1367      H1371   1.111       .  S
C1367      H1372   1.110       .  S
C1367      H1373   1.110       .  S
C1370      H1374   1.110       .  S
C1370      H1375   1.110       .  S
C1370      H1376   1.111       .  S
C1377      C1378   1.392       .  A
C1377      C1382   1.395       .  A
C1377      H1384   1.085       .  S
C1378      C1379   1.424       .  A
C1379      C1380   1.407       .  A
C1379      C1386   1.508       .  S
C1380      C1381   1.399       .  A
C1380      H1385   1.084       .  S
C1381      C1382   1.424       .  A
C1382      C1383   1.504       .  S
C1383      H1387   1.111       .  S
C1383      H1388   1.105       .  S
C1383      H1389   1.110       .  S
C1386      H1390   1.111       .  S
C1386      H1391   1.108       .  S
C1386      H1392   1.111       .  S
C1393      C1394   1.404       .  A
C1393      C1398   1.408       .  A
C1393      H1400   1.084       .  S
C1394      C1395   1.420       .  A
C1395      C1396   1.380       .  A
C1395      C1402   1.507       .  S
C1396      C1397   1.393       .  A
C1396      H1401   1.085       .  S
C1397      C1398   1.416       .  A
C1398      C1399   1.504       .  S
C1399      H1403   1.111       .  S
C1399      H1404   1.110       .  S
C1399      H1405   1.109       .  S
C1402      H1406   1.110       .  S
C1402      H1407   1.108       .  S
C1402      H1408   1.111       .  S
C1409      C1410   1.402       .  A
C1409      C1414   1.420       .  A
C1409      H1416   1.084       .  S
C1410      C1411   1.429       .  A
C1411      C1412   1.424       .  A
C1411      C1418   1.506       .  S
C1412      C1413   1.407       .  A
C1412      H1417   1.084       .  S
C1413      C1414   1.431       .  A
C1414      C1415   1.506       .  S
C1415      H1419   1.111       .  S
C1415      H1420   1.110       .  S
C1415      H1421   1.105       .  S
C1418      H1422   1.110       .  S
C1418      H1423   1.107       .  S
C1418      H1424   1.111       .  S
C1425      C1426   1.408       .  A
C1425      C1430   1.398       .  A
C1425      H1432   1.083       .  S
C1426      C1427   1.422       .  A
C1427      C1428   1.401       .  A
C1427      C1434   1.510       .  S
C1428      C1429   1.400       .  A
C1428      H1433   1.084       .  S
C1429      C1430   1.412       .  A
C1430      C1431   1.509       .  S
C1431      H1435   1.111       .  S
C1431      H1436   1.111       .  S
C1431      H1437   1.109       .  S
C1434      H1438   1.110       .  S
C1434      H1439   1.110       .  S
C1434      H1440   1.111       .  S
C1441      C1442   1.413       .  A
C1441      C1446   1.395       .  A
C1441      H1448   1.083       .  S
C1442      C1443   1.423       .  A
C1443      C1444   1.410       .  A
C1443      C1450   1.503       .  S
C1444      C1445   1.401       .  A
C1444      H1449   1.084       .  S
C1445      C1446   1.406       .  A
C1446      C1447   1.510       .  S
C1447      H1451   1.110       .  S
C1447      H1452   1.110       .  S
C1447      H1453   1.111       .  S
C1450      H1454   1.109       .  S
C1450      H1455   1.109       .  S
C1450      H1456   1.111       .  S
C1457      C1458   1.408       .  A
C1457      C1462   1.410       .  A
C1457      H1464   1.084       .  S
C1458      C1459   1.422       .  A
C1459      C1460   1.397       .  A
C1459      C1466   1.507       .  S
C1460      C1461   1.393       .  A
C1460      H1465   1.084       .  S
C1461      C1462   1.410       .  A
C1462      C1463   1.505       .  S
C1463      H1467   1.111       .  S
C1463      H1468   1.110       .  S
C1463      H1469   1.111       .  S
C1466      H1470   1.107       .  S
C1466      H1471   1.110       .  S
C1466      H1472   1.111       .  S
C1473      C1474   1.407       .  A
C1473      C1478   1.395       .  A
C1473      H1480   1.083       .  S
C1474      C1475   1.412       .  A
C1475      C1476   1.411       .  A
C1475      C1482   1.504       .  S
C1476      C1477   1.413       .  A
C1476      H1481   1.084       .  S
C1477      C1478   1.416       .  A
C1478      C1479   1.511       .  S
C1479      H1483   1.111       .  S
C1479      H1484   1.110       .  S
C1479      H1485   1.109       .  S
C1482      H1486   1.109       .  S
C1482      H1487   1.110       .  S
C1482      H1488   1.111       .  S
C1489      C1490   1.397       .  A
C1489      C1494   1.404       .  A
C1489      H1496   1.084       .  S
C1490      C1491   1.417       .  A
C1491      C1492   1.400       .  A
C1491      C1498   1.506       .  S
C1492      C1493   1.398       .  A
C1492      H1497   1.085       .  S
C1493      C1494   1.418       .  A
C1494      C1495   1.505       .  S
C1495      H1499   1.111       .  S
C1495      H1500   1.105       .  S
C1495      H1501   1.110       .  S
C1498      H1502   1.110       .  S
C1498      H1503   1.107       .  S
C1498      H1504   1.110       .  S
C1505      C1506   1.406       .  A
C1505      C1510   1.408       .  A
C1505      H1512   1.084       .  S
C1506      C1507   1.413       .  A
C1507      C1508   1.408       .  A
C1507      C1514   1.505       .  S
C1508      C1509   1.407       .  A
C1508      H1513   1.084       .  S
C1509      C1510   1.417       .  A
C1510      C1511   1.508       .  S
C1511      H1515   1.111       .  S
C1511      H1516   1.110       .  S
C1511      H1517   1.110       .  S
C1514      H1518   1.110       .  S
C1514      H1519   1.111       .  S
C1514      H1520   1.111       .  S
C1521      C1522   1.404       .  A
C1521      C1526   1.409       .  A
C1521      H1528   1.082       .  S
C1522      C1523   1.405       .  A
C1523      C1524   1.393       .  A
C1523      C1530   1.508       .  S
C1524      C1525   1.413       .  A
C1524      H1529   1.083       .  S
C1525      C1526   1.419       .  A
C1526      C1527   1.506       .  S
C1527      H1531   1.111       .  S
C1527      H1532   1.109       .  S
C1527      H1533   1.110       .  S
C1530      H1534   1.107       .  S
C1530      H1535   1.109       .  S
C1530      H1536   1.111       .  S
C1537      C1538   1.408       .  A
C1537      C1542   1.399       .  A
C1537      H1544   1.084       .  S
C1538      C1539   1.409       .  A
C1539      C1540   1.393       .  A
C1539      C1546   1.506       .  S
C1540      C1541   1.405       .  A
C1540      H1545   1.084       .  S
C1541      C1542   1.409       .  A
C1542      C1543   1.508       .  S
C1543      H1547   1.111       .  S
C1543      H1548   1.110       .  S
C1543      H1549   1.111       .  S
C1546      H1550   1.110       .  S
C1546      H1551   1.109       .  S
C1546      H1552   1.111       .  S
C1553      C1554   1.395       .  A
C1553      C1558   1.393       .  A
C1553      H1560   1.085       .  S
C1554      C1555   1.406       .  A
C1555      C1556   1.385       .  A
C1555      C1562   1.509       .  S
C1556      C1557   1.399       .  A
C1556      H1561   1.085       .  S
C1557      C1558   1.412       .  A
C1558      C1559   1.506       .  S
C1559      H1563   1.111       .  S
C1559      H1564   1.110       .  S
C1559      H1565   1.109       .  S
C1562      H1566   1.110       .  S
C1562      H1567   1.108       .  S
C1562      H1568   1.110       .  S
C1569      C1570   1.396       .  A
C1569      C1574   1.402       .  A
C1569      H1576   1.085       .  S
C1570      C1571   1.410       .  A
C1571      C1572   1.408       .  A
C1571      C1578   1.506       .  S
C1572      C1573   1.411       .  A
C1572      H1577   1.083       .  S
C1573      C1574   1.428       .  A
C1574      C1575   1.510       .  S
C1575      H1579   1.111       .  S
C1575      H1580   1.110       .  S
C1575      H1581   1.108       .  S
C1578      H1582   1.109       .  S
C1578      H1583   1.110       .  S
C1578      H1584   1.111       .  S
C1585      C1586   1.398       .  A
C1585      C1590   1.401       .  A
C1585      H1592   1.085       .  S
C1586      C1587   1.412       .  A
C1587      C1588   1.401       .  A
C1587      C1594   1.507       .  S
C1588      C1589   1.402       .  A
C1588      H1593   1.084       .  S
C1589      C1590   1.419       .  A
C1590      C1591   1.508       .  S
C1591      H1595   1.111       .  S
C1591      H1596   1.110       .  S
C1591      H1597   1.108       .  S
C1594      H1598   1.110       .  S
C1594      H1599   1.110       .  S
C1594      H1600   1.111       .  S
C1601      C1602   1.404       .  A
C1601      C1606   1.415       .  A
C1601      H1608   1.084       .  S
C1602      C1603   1.427       .  A
C1603      C1604   1.400       .  A
C1603      C1610   1.505       .  S
C1604      C1605   1.395       .  A
C1604      H1609   1.085       .  S
C1605      C1606   1.425       .  A
C1606      C1607   1.507       .  S
C1607      H1611   1.111       .  S
C1607      H1612   1.109       .  S
C1607      H1613   1.111       .  S
C1610      H1614   1.110       .  S
C1610      H1615   1.106       .  S
C1610      H1616   1.111       .  S
C1617      C1618   1.412       .  A
C1617      C1622   1.419       .  A
C1617      H1624   1.084       .  S
C1618      C1619   1.417       .  A
C1619      C1620   1.425       .  A
C1619      C1626   1.505       .  S
C1620      C1621   1.415       .  A
C1620      H1625   1.084       .  S
C1621      C1622   1.417       .  A
C1622      C1623   1.505       .  S
C1623      H1627   1.111       .  S
C1623      H1628   1.111       .  S
C1623      H1629   1.108       .  S
C1626      H1630   1.110       .  S
C1626      H1631   1.111       .  S
C1626      H1632   1.111       .  S
C1633      C1634   1.401       .  A
C1633      C1638   1.398       .  A
C1633      H1640   1.085       .  S
C1634      C1635   1.408       .  A
C1635      C1636   1.391       .  A
C1635      C1642   1.510       .  S
C1636      C1637   1.403       .  A
C1636      H1641   1.085       .  S
C1637      C1638   1.412       .  A
C1638      C1639   1.506       .  S
C1639      H1643   1.111       .  S
C1639      H1644   1.109       .  S
C1639      H1645   1.107       .  S
C1642      H1646   1.111       .  S
C1642      H1647   1.109       .  S
C1642      H1648   1.111       .  S
C1649      C1650   1.397       .  A
C1649      C1654   1.395       .  A
C1649      H1656   1.085       .  S
C1650      C1651   1.408       .  A
C1651      C1652   1.401       .  A
C1651      C1658   1.506       .  S
C1652      C1653   1.406       .  A
C1652      H1657   1.084       .  S
C1653      C1654   1.417       .  A
C1654      C1655   1.508       .  S
C1655      H1659   1.111       .  S
C1655      H1660   1.110       .  S
C1655      H1661   1.108       .  S
C1658      H1662   1.111       .  S
C1658      H1663   1.109       .  S
C1658      H1664   1.111       .  S
C1665      C1666   1.405       .  A
C1665      C1670   1.409       .  A
C1665      H1672   1.084       .  S
C1666      C1667   1.417       .  A
C1667      C1668   1.408       .  A
C1667      C1674   1.505       .  S
C1668      C1669   1.401       .  A
C1668      H1673   1.084       .  S
C1669      C1670   1.413       .  A
C1670      C1671   1.507       .  S
C1671      H1675   1.111       .  S
C1671      H1676   1.110       .  S
C1671      H1677   1.111       .  S
C1674      H1678   1.107       .  S
C1674      H1679   1.110       .  S
C1674      H1680   1.111       .  S
C1681      C1682   1.402       .  A
C1681      C1686   1.403       .  A
C1681      H1688   1.083       .  S
C1682      C1683   1.427       .  A
C1683      C1684   1.419       .  A
C1683      C1690   1.506       .  S
C1684      C1685   1.409       .  A
C1684      H1689   1.083       .  S
C1685      C1686   1.434       .  A
C1686      C1687   1.513       .  S
C1687      H1691   1.111       .  S
C1687      H1692   1.110       .  S
C1687      H1693   1.107       .  S
C1690      H1694   1.110       .  S
C1690      H1695   1.110       .  S
C1690      H1696   1.111       .  S
C1697      C1698   1.401       .  A
C1697      C1702   1.404       .  A
C1697      H1704   1.083       .  S
C1698      C1699   1.412       .  A
C1699      C1700   1.412       .  A
C1699      C1706   1.505       .  S
C1700      C1701   1.406       .  A
C1700      H1705   1.084       .  S
C1701      C1702   1.417       .  A
C1702      C1703   1.507       .  S
C1703      H1707   1.111       .  S
C1703      H1708   1.107       .  S
C1703      H1709   1.110       .  S
C1706      H1710   1.111       .  S
C1706      H1711   1.110       .  S
C1706      H1712   1.111       .  S
C1713      C1714   1.401       .  A
C1713      C1718   1.412       .  A
C1713      H1720   1.084       .  S
C1714      C1715   1.431       .  A
C1715      C1716   1.409       .  A
C1715      C1722   1.510       .  S
C1716      C1717   1.402       .  A
C1716      H1721   1.084       .  S
C1717      C1718   1.432       .  A
C1718      C1719   1.508       .  S
C1719      H1723   1.111       .  S
C1719      H1724   1.110       .  S
C1719      H1725   1.108       .  S
C1722      H1726   1.110       .  S
C1722      H1727   1.109       .  S
C1722      H1728   1.111       .  S
C1729      C1730   1.396       .  A
C1729      C1734   1.389       .  A
C1729      H1736   1.085       .  S
C1730      C1731   1.410       .  A
C1731      C1732   1.384       .  A
C1731      C1738   1.508       .  S
C1732      C1733   1.392       .  A
C1732      H1737   1.086       .  S
C1733      C1734   1.407       .  A
C1734      C1735   1.508       .  S
C1735      H1739   1.111       .  S
C1735      H1740   1.110       .  S
C1735      H1741   1.110       .  S
C1738      H1742   1.110       .  S
C1738      H1743   1.105       .  S
C1738      H1744   1.110       .  S
C1745      C1746   1.407       .  A
C1745      C1750   1.403       .  A
C1745      H1752   1.084       .  S
C1746      C1747   1.410       .  A
C1747      C1748   1.402       .  A
C1747      C1754   1.507       .  S
C1748      C1749   1.410       .  A
C1748      H1753   1.084       .  S
C1749      C1750   1.414       .  A
C1750      C1751   1.508       .  S
C1751      H1755   1.111       .  S
C1751      H1756   1.109       .  S
C1751      H1757   1.111       .  S
C1754      H1758   1.110       .  S
C1754      H1759   1.109       .  S
C1754      H1760   1.111       .  S
C1761      C1762   1.396       .  A
C1761      C1766   1.390       .  A
C1761      H1768   1.085       .  S
C1762      C1763   1.409       .  A
C1763      C1764   1.390       .  A
C1763      C1770   1.508       .  S
C1764      C1765   1.398       .  A
C1764      H1769   1.085       .  S
C1765      C1766   1.412       .  A
C1766      C1767   1.509       .  S
C1767      H1771   1.111       .  S
C1767      H1772   1.107       .  S
C1767      H1773   1.110       .  S
C1770      H1774   1.107       .  S
C1770      H1775   1.110       .  S
C1770      H1776   1.111       .  S
C1777      C1778   1.404       .  A
C1777      C1782   1.408       .  A
C1777      H1784   1.084       .  S
C1778      C1779   1.418       .  A
C1779      C1780   1.396       .  A
C1779      C1786   1.510       .  S
C1780      C1781   1.398       .  A
C1780      H1785   1.085       .  S
C1781      C1782   1.416       .  A
C1782      C1783   1.507       .  S
C1783      H1787   1.111       .  S
C1783      H1788   1.109       .  S
C1783      H1789   1.110       .  S
C1786      H1790   1.110       .  S
C1786      H1791   1.108       .  S
C1786      H1792   1.111       .  S
C1793      C1794   1.402       .  A
C1793      C1798   1.403       .  A
C1793      H1800   1.085       .  S
C1794      C1795   1.412       .  A
C1795      C1796   1.408       .  A
C1795      C1802   1.506       .  S
C1796      C1797   1.404       .  A
C1796      H1801   1.084       .  S
C1797      C1798   1.415       .  A
C1798      C1799   1.508       .  S
C1799      H1803   1.111       .  S
C1799      H1804   1.110       .  S
C1799      H1805   1.109       .  S
C1802      H1806   1.111       .  S
C1802      H1807   1.109       .  S
C1802      H1808   1.111       .  S
C1809      C1810   1.399       .  A
C1809      C1814   1.395       .  A
C1809      H1816   1.085       .  S
C1810      C1811   1.409       .  A
C1811      C1812   1.398       .  A
C1811      C1818   1.507       .  S
C1812      C1813   1.400       .  A
C1812      H1817   1.085       .  S
C1813      C1814   1.410       .  A
C1814      C1815   1.508       .  S
C1815      H1819   1.111       .  S
C1815      H1820   1.111       .  S
C1815      H1821   1.108       .  S
C1818      H1822   1.109       .  S
C1818      H1823   1.111       .  S
C1818      H1824   1.111       .  S
