geometry optimzed in LAMMPS
_audit_creation_date              2020-11-30 
_audit_creation_method            'lammps2cif' 
_symmetry_space_group_name_H-M    'P1' 
_symmetry_Int_Tables_number       1 
_symmetry_cell_setting            triclinic 
loop_ 
_symmetry_equiv_pos_as_xyz 
  x,y,z 
_cell_length_a                    35.33843185 
_cell_length_b                    34.97408493928364 
_cell_length_c                    44.00318387546792 
_cell_angle_alpha                 89.68943837574378 
_cell_angle_beta                  90.31819285954688 
_cell_angle_gamma                 90.3209257095941 
loop_ 
_atom_site_label 
_atom_site_type_symbol 
_atom_site_fract_x 
_atom_site_fract_y 
_atom_site_fract_z 
_atom_site_charge 
C1          C  0.27691026  0.92584717  0.49688960     0.85700
C2          C  0.29589107  0.90783478  0.46892914    -0.54500
C3          C  0.30055484  0.86914772  0.47084959     0.08600
C4          C  0.28561005  0.85198549  0.00088789     0.19600
C5          C  0.23943584  0.90325348  0.99937464    -0.55300
C6          C  0.24430205  0.86442803  0.50261484     0.08700
C7          C  0.30124325  0.91293762  0.02400615    -0.54800
C8          C  0.30608632  0.87443720  0.02613383     0.09300
H9          H  0.30392098  0.92405552  0.44884795     0.13800
H10         H  0.28929097  0.82061217  0.00276022    -0.00500
H11         H  0.21163808  0.91590879  0.99731535     0.14100
H12         H  0.31332583  0.93274917  0.04038693     0.13900
C13         C  0.27626808  0.09526797  0.49470340     0.85700
C14         C  0.29861307  0.11030284  0.02258022    -0.54500
C15         C  0.29984359  0.14905105  0.02460720     0.08600
C16         C  0.27860151  0.16971893  0.49859412     0.19600
C17         C  0.23697316  0.11402548  0.49676751    -0.55300
C18         C  0.23822693  0.15281651  0.49856557     0.08700
C19         C  0.29354825  0.11552342  0.46683159    -0.54800
C20         C  0.29585783  0.15469542  0.46874861     0.09300
H21         H  0.31186055  0.09170519  0.03934289     0.13800
H22         H  0.27964067  0.20087299  0.50208238    -0.00500
H23         H  0.21026256  0.09878566  0.49471926     0.14100
H24         H  0.30144805  0.10002328  0.44659624     0.13900
C25         C  0.90195822  0.71279400  0.50125114     0.85700
C26         C  0.88561458  0.69194251  0.47333645    -0.54500
C27         C  0.84701033  0.68965929  0.47259243     0.08600
C28         C  0.82816895  0.71048921  0.49931131     0.19600
C29         C  0.88312976  0.75261280  0.49928858    -0.55300
C30         C  0.84462657  0.75114973  0.49820366     0.08700
C31         C  0.88386711  0.69343600  0.02877593    -0.54800
C32         C  0.84542543  0.69226889  0.02788482     0.09300
H33         H  0.90314602  0.68037327  0.45546379     0.13800
H34         H  0.79676710  0.71021896  0.49880292    -0.00500
H35         H  0.89799160  0.77951222  0.99719527     0.14100
H36         H  0.90017470  0.68255003  0.04792736     0.10700
C37         C  0.06841129  0.71290828  0.50398538     0.85700
C38         C  0.08481808  0.69269818  0.03162811    -0.54500
C39         C  0.12307107  0.68933251  0.03117916     0.08600
C40         C  0.14172897  0.70523864  0.50275393     0.19600
C41         C  0.09033908  0.75116215  0.50121314    -0.55300
C42         C  0.12877326  0.74695306  0.50112679     0.08700
C43         C  0.08302133  0.69029119  0.47647385    -0.54800
C44         C  0.12135581  0.68592701  0.47586437     0.09300
H45         H  0.06774146  0.68266971  0.05055294     0.13800
H46         H  0.17297739  0.70188454  0.50255384    -0.00500
H47         H  0.07735302  0.77894238  0.49888039     0.14100
H48         H  0.06479063  0.68119048  0.45790961     0.13900
C49         C  0.69791270  0.92834407  0.50070805     0.85700
C50         C  0.67861669  0.91080648  0.02950416    -0.54500
C51         C  0.67635146  0.87172113  0.02986623     0.08600
C52         C  0.69240642  0.85393754  0.50079989     0.19600
C53         C  0.73614340  0.90807876  0.49926943    -0.55300
C54         C  0.73330981  0.86931117  0.49925928     0.08700
C55         C  0.67419498  0.91186977  0.47422247    -0.54800
C56         C  0.67106916  0.87284240  0.47403920     0.09300
H57         H  0.66734772  0.92780362  0.04783575     0.13800
H58         H  0.69008193  0.82243730  0.50071250    -0.00500
H59         H  0.76311673  0.92308410  0.49833259     0.14100
H60         H  0.66137918  0.92968682  0.45691724     0.13900
C61         C  0.69100647  0.09650322  0.50294270     0.85700
C62         C  0.66557293  0.10973573  0.47626167    -0.54500
C63         C  0.66138519  0.14845004  0.47393173     0.08600
C64         C  0.68145671  0.17053050  0.49965764     0.19600
C65         C  0.72793976  0.11951642  0.49939820    -0.55300
C66         C  0.72310148  0.15816110  0.49745049     0.08700
C67         C  0.67099821  0.11356818  0.03046485    -0.54800
C68         C  0.66710486  0.15226481  0.02913837     0.09300
H69         H  0.65196344  0.09018455  0.46050000     0.13800
H70         H  0.67745471  0.20177906  0.99839650    -0.00500
H71         H  0.75531543  0.10578974  0.99774189     0.14100
H72         H  0.65965950  0.09703309  0.04922812     0.13900
In73       In  0.71467750  0.60745855  0.32574383     1.36900
C74         C  0.71847418  0.60829105  0.26577186     0.76800
O75         O  0.74366936  0.55114199  0.32383951    -0.61700
O76         O  0.68624514  0.55173694  0.33829867    -0.52600
C77         C  0.76025557  0.63080546  0.37032300     0.69500
O78         O  0.76959525  0.63223296  0.34267677    -0.47400
C79         C  0.66186373  0.66030066  0.32970227     0.74200
O80         O  0.74577955  0.62002691  0.28199825    -0.59300
O81         O  0.65603581  0.62628960  0.33845918    -0.49400
O82         O  0.69012851  0.59623826  0.28025712    -0.55700
C83         C  0.71494033  0.53209400  0.33171370     0.84300
O84         O  0.72776065  0.61679911  0.37481645    -0.57600
O85         O  0.69457719  0.66706552  0.31970480    -0.60900
In86       In  0.58115653  0.74396202  0.32759239     1.36900
C87         C  0.58078812  0.74907243  0.26728950     0.76800
O88         O  0.63975095  0.72331770  0.32040608    -0.61700
O89         O  0.59952357  0.68417528  0.33920097    -0.52600
C90         C  0.60562669  0.78666781  0.37364985     0.69500
O91         O  0.60179989  0.80018787  0.34708948    -0.47400
C92         C  0.50693387  0.74290905  0.33476624     0.74200
O93         O  0.59480472  0.77542379  0.28354019    -0.59300
O94         O  0.52690266  0.71367311  0.33971601    -0.49400
O95         O  0.56716968  0.72122681  0.28190023    -0.55700
C96         C  0.63293936  0.68996438  0.33006629     0.84300
O97         O  0.59565251  0.75219760  0.37659294    -0.57600
O98         O  0.52515731  0.77280736  0.32792015    -0.60900
In99       In  0.57753438  0.28102509  0.32761488     1.36900
C100        C  0.57811748  0.27694591  0.26720031     0.76800
O101        O  0.52133424  0.25253516  0.32682926    -0.61700
O102        O  0.52343975  0.31170287  0.33826324    -0.52600
C103        C  0.59720999  0.23578238  0.37397044     0.69500
O104        O  0.59775662  0.22476019  0.34661852    -0.47400
C105        C  0.63102975  0.33352592  0.33141598     0.74200
O106        O  0.58992593  0.24960528  0.28361950    -0.59300
O107        O  0.59771652  0.33988757  0.34034056    -0.49400
O108        O  0.56617993  0.30534883  0.28169880    -0.55700
C109        C  0.50332289  0.28243060  0.33315410     0.84300
O110        O  0.58670624  0.26989773  0.37724083    -0.57600
O111        O  0.63694627  0.30018528  0.32182314    -0.60900
In112      In  0.71429375  0.41519470  0.32464660     1.36900
C113        C  0.71745657  0.41674689  0.26438306     0.76800
O114        O  0.69271364  0.35579041  0.31968346    -0.61700
O115        O  0.65598265  0.39666562  0.33947939    -0.52600
C116        C  0.76110915  0.39279766  0.36890679     0.69500
O117        O  0.76710712  0.38576777  0.34122035    -0.47400
C118        C  0.71478414  0.49025418  0.33121223     0.74200
O119        O  0.74496830  0.40476299  0.28023202    -0.59300
O120        O  0.68572393  0.47027465  0.33690449    -0.49400
O121        O  0.68928768  0.42767892  0.27935449    -0.55700
C122        C  0.66066051  0.36273720  0.33062246     0.84300
O123        O  0.73140048  0.41169600  0.37347775    -0.57600
O124        O  0.74360883  0.47165759  0.32337396    -0.60900
In125      In  0.25157773  0.60887848  0.32925305     1.36900
C126        C  0.24915204  0.60902010  0.26924896     0.76800
O127        O  0.27420860  0.66769068  0.32187384    -0.61700
O128        O  0.31071244  0.62683592  0.34281823    -0.52600
C129        C  0.20573644  0.63307726  0.37252514     0.69500
O130        O  0.19487096  0.63008728  0.34524505    -0.47400
C131        C  0.25053907  0.53348938  0.33477146     0.74200
O132        O  0.22225335  0.62255880  0.28465409    -0.59300
O133        O  0.27913622  0.55316096  0.34232617    -0.49400
O134        O  0.27640866  0.59596932  0.28455225    -0.55700
C135        C  0.30662041  0.66040048  0.33250639     0.84300
O136        O  0.23936616  0.62293749  0.37758077    -0.57600
O137        O  0.22201264  0.55252729  0.32672085    -0.60900
In138      In  0.39118777  0.74133481  0.32755404     1.36900
C139        C  0.39011973  0.74724195  0.26744430     0.76800
O140        O  0.44662427  0.77175062  0.32892556    -0.61700
O141        O  0.44626824  0.71193276  0.33841725    -0.52600
C142        C  0.36917354  0.78379489  0.37355685     0.69500
O143        O  0.37293061  0.79754778  0.34708320    -0.47400
C144        C  0.33715167  0.68890207  0.33167716     0.74200
O145        O  0.37681266  0.77337272  0.28399619    -0.59300
O146        O  0.37077832  0.68210156  0.34010852    -0.49400
O147        O  0.40361655  0.71905213  0.28167591    -0.55700
C148        C  0.46555145  0.74214475  0.33470072     0.84300
O149        O  0.37763358  0.74899748  0.37639652    -0.57600
O150        O  0.33154988  0.72219309  0.32147682    -0.60900
In151      In  0.25178657  0.41681612  0.32500285     1.36900
C152        C  0.24796452  0.41623611  0.26469513     0.76800
O153        O  0.22247287  0.47309109  0.32363866    -0.61700
O154        O  0.27960028  0.47189538  0.33939263    -0.52600
C155        C  0.20820856  0.39307687  0.37065939     0.69500
O156        O  0.19762299  0.39128957  0.34316510    -0.47400
C157        C  0.30573930  0.36498646  0.32794515     0.74200
O158        O  0.22084675  0.40393754  0.28076367    -0.59300
O159        O  0.31148263  0.39918163  0.33598846    -0.49400
O160        O  0.27569326  0.42941369  0.27947875    -0.55700
C161        C  0.25078274  0.49171839  0.33315782     0.84300
O162        O  0.24078042  0.40718273  0.37439621    -0.57600
O163        O  0.27238999  0.35735394  0.31957968    -0.60900
In164      In  0.38808423  0.28315394  0.32383977     1.36900
C165        C  0.38792814  0.27681996  0.26390790     0.76800
O166        O  0.32874301  0.30261332  0.31810696    -0.61700
O167        O  0.36933313  0.34275009  0.33502272    -0.52600
C168        C  0.36449796  0.24026609  0.36950617     0.69500
O169        O  0.36735219  0.22712997  0.34289527    -0.47400
C170        C  0.46205102  0.28299032  0.33234840     0.74200
O171        O  0.37519288  0.25028200  0.28067313    -0.59300
O172        O  0.44284546  0.31305487  0.33547684    -0.49400
O173        O  0.40049490  0.30559897  0.27784318    -0.55700
C174        C  0.33541918  0.33610574  0.32728044     0.84300
O175        O  0.37455670  0.27467443  0.37255758    -0.57600
O176        O  0.44320347  0.25324723  0.32646556    -0.60900
C177        C  0.89899883  0.31042225  0.50250017     0.85700
C178        C  0.88066584  0.33091890  0.02951688    -0.54500
C179        C  0.84196775  0.33237189  0.02815220     0.08600
C180        C  0.82534853  0.31580938  0.49868993     0.19600
C181        C  0.87833614  0.27170001  0.50013137    -0.55300
C182        C  0.83987525  0.27447925  0.49835468     0.08700
C183        C  0.88464196  0.33357097  0.47476272    -0.54800
C184        C  0.84625394  0.33608626  0.47262367     0.09300
H185        H  0.89639786  0.34418006  0.04782641     0.13800
H186        H  0.79412143  0.31819334  0.49673683    -0.00500
H187        H  0.89300146  0.24451534  0.49964001     0.14100
H188        H  0.90307302  0.34677525  0.45801664     0.13900
C189        C  0.06670140  0.30547913  0.49888279     0.85700
C190        C  0.08274740  0.32769738  0.47141852    -0.54500
C191        C  0.12123014  0.32748582  0.46965819     0.08600
C192        C  0.14063527  0.30683720  0.49627109     0.19600
C193        C  0.08475637  0.26574985  0.49769850    -0.55300
C194        C  0.12321732  0.26641854  0.49665122     0.08700
C195        C  0.08672633  0.32518213  0.02591511    -0.54800
C196        C  0.12565439  0.32576762  0.02491273     0.09300
H197        H  0.06540741  0.34264890  0.45481877     0.13800
H198        H  0.17169364  0.30742940  0.49357266    -0.00500
H199        H  0.06859537  0.23916947  0.99845833     0.14100
H200        H  0.07133723  0.33792939  0.04446002     0.13900
In201      In  0.71316901  0.61117342  0.17257270     1.36900
C202        C  0.71830893  0.60884771  0.23255369     0.76800
O203        O  0.69206579  0.66956868  0.18070754    -0.61700
O204        O  0.65413546  0.62932165  0.16040376    -0.52600
C205        C  0.75681132  0.63718119  0.12836890     0.69500
O206        O  0.76726096  0.63786403  0.15585787    -0.47400
C207        C  0.71283014  0.53672789  0.16423875     0.74200
O208        O  0.74492072  0.62224107  0.21652015    -0.59300
O209        O  0.68374762  0.55670549  0.15939650    -0.49400
O210        O  0.69025600  0.59627951  0.21786701    -0.55700
C211        C  0.65940417  0.66270305  0.17044845     0.84300
O212        O  0.72462231  0.62268918  0.12356714    -0.57600
O213        O  0.74228568  0.55513650  0.17149292    -0.60900
In214      In  0.57872493  0.74534530  0.17370826     1.36900
C215        C  0.58020661  0.74930842  0.23393549     0.76800
O216        O  0.52322382  0.77480204  0.17418266    -0.61700
O217        O  0.52406334  0.71651774  0.16032160    -0.52600
C218        C  0.60461861  0.78789773  0.12823262     0.69500
O219        O  0.59980070  0.80143103  0.15451740    -0.47400
C220        C  0.63010146  0.69170692  0.17093926     0.74200
O221        O  0.59298007  0.77628269  0.21758315    -0.59300
O222        O  0.59653254  0.68582120  0.16188649    -0.49400
O223        O  0.56676061  0.72133567  0.21944232    -0.55700
C224        C  0.50456816  0.74564730  0.16633081     0.84300
O225        O  0.59497285  0.75340727  0.12519112    -0.57600
O226        O  0.63695076  0.72470565  0.18107220    -0.60900
In227      In  0.57813723  0.28164325  0.17329795     1.36900
C228        C  0.57817635  0.27709500  0.23378287     0.76800
O229        O  0.63703237  0.30353491  0.17761294    -0.61700
O230        O  0.59509288  0.34221242  0.16137411    -0.52600
C231        C  0.60201909  0.23714025  0.12849089     0.69500
O232        O  0.60671744  0.22848434  0.15620576    -0.47400
C233        C  0.50374691  0.27958457  0.16532515     0.74200
O234        O  0.58921638  0.24955686  0.21760693    -0.59300
O235        O  0.52312402  0.30920151  0.15957805    -0.49400
O236        O  0.56707516  0.30591685  0.21902450    -0.55700
C237        C  0.62926922  0.33691809  0.16879958     0.84300
O238        O  0.58488536  0.26820535  0.12401804    -0.57600
O239        O  0.52260396  0.25087430  0.17379375    -0.60900
In240      In  0.71116958  0.42022682  0.17100412     1.36900
C241        C  0.71691759  0.41807289  0.23108488     0.76800
O242        O  0.74105562  0.47609946  0.17146952    -0.61700
O243        O  0.68278507  0.47555574  0.15853690    -0.52600
C244        C  0.75343244  0.39864915  0.12480121     0.69500
O245        O  0.76694488  0.40265803  0.15126808    -0.47400
C246        C  0.65813090  0.36701624  0.16837372     0.74200
O247        O  0.74256701  0.40449411  0.21439052    -0.59300
O248        O  0.65150422  0.40125907  0.16064678    -0.49400
O249        O  0.68946834  0.43281877  0.21699881    -0.55700
C250        C  0.71224110  0.49506037  0.16401798     0.84300
O251        O  0.71871913  0.40611000  0.12208660    -0.57600
O252        O  0.69170444  0.36029738  0.17664008    -0.60900
In253      In  0.25574672  0.60728387  0.17617284     1.36900
C254        C  0.25003692  0.60833701  0.23606252     0.76800
O255        O  0.22608670  0.55104886  0.17634226    -0.61700
O256        O  0.28412645  0.55239898  0.16334448    -0.52600
C257        C  0.21160480  0.62933743  0.13083670     0.69500
O258        O  0.20187820  0.63256160  0.15831287    -0.47400
C259        C  0.30874017  0.66024414  0.17139781     0.74200
O260        O  0.22336587  0.61990394  0.21916916    -0.59300
O261        O  0.31492387  0.62590882  0.16425624    -0.49400
O262        O  0.27859632  0.59598791  0.22228514    -0.55700
C263        C  0.25477682  0.53254894  0.16816899     0.84300
O264        O  0.24374649  0.61481586  0.12696061    -0.57600
O265        O  0.27571197  0.66715328  0.18036495    -0.60900
In266      In  0.38924288  0.74456294  0.17394590     1.36900
C267        C  0.38992439  0.74805069  0.23414079     0.76800
O268        O  0.33059623  0.72338119  0.17988160    -0.61700
O269        O  0.37106387  0.68479055  0.16173827    -0.52600
C270        C  0.36614347  0.79050497  0.12925472     0.69500
O271        O  0.36371459  0.79939771  0.15695902    -0.47400
C272        C  0.46326124  0.74541941  0.16659448     0.74200
O273        O  0.37748051  0.77545991  0.21814593    -0.59300
O274        O  0.44358832  0.71602093  0.16088402    -0.49400
O275        O  0.40223332  0.72009995  0.21931979    -0.55700
C276        C  0.33757848  0.69016528  0.17061027     0.84300
O277        O  0.38065967  0.75814825  0.12478525    -0.57600
O278        O  0.44485879  0.77443081  0.17459190    -0.60900
In279      In  0.25361454  0.41569287  0.17120933     1.36900
C280        C  0.24864019  0.41532119  0.23136541     0.76800
O281        O  0.27371614  0.35592362  0.17720152    -0.61700
O282        O  0.31233296  0.39677727  0.15861787    -0.52600
C283        C  0.21050323  0.39388991  0.12484372     0.69500
O284        O  0.19810819  0.39432266  0.15175718    -0.47400
C285        C  0.25415268  0.49088314  0.16639219     0.74200
O286        O  0.22202608  0.40246490  0.21487818    -0.59300
O287        O  0.28310717  0.47125113  0.16057682    -0.49400
O288        O  0.27707102  0.42749336  0.21705185    -0.55700
C289        C  0.30647122  0.36268243  0.16715087     0.84300
O290        O  0.24406629  0.40558440  0.12183146    -0.57600
O291        O  0.22470665  0.47191996  0.17247893    -0.60900
In292      In  0.38766241  0.27903742  0.17056747     1.36900
C293        C  0.38798813  0.27584632  0.23067810     0.76800
O294        O  0.44362820  0.24970935  0.17240164    -0.61700
O295        O  0.44257904  0.30787876  0.15783139    -0.52600
C296        C  0.36321523  0.23295294  0.12656934     0.69500
O297        O  0.36036025  0.22451544  0.15441622    -0.47400
C298        C  0.33549061  0.33297890  0.16665737     0.74200
O299        O  0.37693816  0.24765399  0.21498258    -0.59300
O300        O  0.36902544  0.33869954  0.15776547    -0.49400
O301        O  0.39905589  0.30444919  0.21561458    -0.55700
C302        C  0.46227325  0.27893386  0.16449734     0.84300
O303        O  0.37954566  0.26455309  0.12158879    -0.57600
O304        O  0.32870371  0.29966377  0.17626059    -0.60900
C305        C  0.18887174  0.37857341  0.09887108    -0.06900
C306        C  0.20441784  0.34767362  0.08345231    -0.18000
C307        C  0.18560990  0.33021473  0.05901190     0.10300
C308        C  0.14948820  0.34398672  0.04954611    -0.06800
C309        C  0.13483087  0.37620327  0.06469862    -0.18100
C310        C  0.15405237  0.39358283  0.08898884     0.10300
S311        S  0.20850884  0.28945539  0.04233443    -0.33000
S312        S  0.13331178  0.43553236  0.10561699    -0.33000
H313        H  0.16743922  0.45252895  0.11525162     0.28300
H314        H  0.24486307  0.29546100  0.05465564     0.28300
H315        H  0.23129353  0.33647799  0.09130630     0.18900
H316        H  0.10835516  0.38865875  0.05727769     0.18900
C317        C  0.94230706  0.30556608  0.50326767    -0.06900
C318        C  0.96092426  0.29989237  0.47547677    -0.18000
C319        C  0.00029845  0.29718334  0.47355975     0.10300
C320        C  0.02312286  0.30312728  0.49986516    -0.06800
C321        C  0.00474433  0.30356084  0.02781219    -0.18100
C322        C  0.96514480  0.30322330  0.02997025     0.10300
S323        S  0.01832811  0.28386124  0.43689355    -0.33000
S324        S  0.94650637  0.29397969  0.06737519    -0.33000
H325        H  0.91683134  0.27049557  0.05705070     0.28300
H326        H  0.04311653  0.25600057  0.44824860     0.28300
H327        H  0.94451043  0.29629047  0.45482199     0.18900
H328        H  0.02088432  0.30168420  0.04869706     0.18900
C329        C  0.81837006  0.34969567  0.05260498    -0.06900
C330        C  0.83092533  0.38364942  0.06662839    -0.18000
C331        C  0.81009494  0.40088858  0.08984159     0.10300
C332        C  0.77564156  0.38421967  0.09918201    -0.06800
C333        C  0.76240068  0.35127102  0.08471924    -0.18100
C334        C  0.78360230  0.33333495  0.06231198     0.10300
S335        S  0.82840286  0.44451732  0.10606179    -0.33000
S336        S  0.76633392  0.28751431  0.05009475    -0.33000
H337        H  0.80102621  0.27002510  0.05658683     0.28300
H338        H  0.79306047  0.46027268  0.11326449     0.28300
H339        H  0.85695136  0.39719824  0.05925147     0.18900
H340        H  0.73621652  0.33806893  0.09224436     0.18900
C341        C  0.18499483  0.37833458  0.39629113    -0.06900
C342        C  0.15950419  0.34827506  0.39055483    -0.18000
C343        C  0.13883208  0.33099761  0.41410130     0.10300
C344        C  0.14251610  0.34488404  0.44400395    -0.06800
C345        C  0.16779929  0.37497931  0.44989140    -0.18100
C346        C  0.18916091  0.39185379  0.42645223     0.10300
S347        S  0.11028423  0.28924563  0.40617641    -0.33000
S348        S  0.22056583  0.43126149  0.43540525    -0.33000
H349        H  0.21586903  0.43015365  0.46712152     0.28300
H350        H  0.11572612  0.28890244  0.37454373     0.28300
H351        H  0.15694499  0.33726486  0.36769224     0.18900
H352        H  0.17059809  0.38529163  0.47295229     0.18900
C353        C  0.78589259  0.37997543  0.39445864    -0.06900
C354        C  0.77802978  0.39378286  0.42374627    -0.18000
C355        C  0.79847303  0.38151698  0.44928021     0.10300
C356        C  0.82674061  0.35358703  0.44605542    -0.06800
C357        C  0.83541484  0.34036733  0.41686429    -0.18100
C358        C  0.81585664  0.35356255  0.39110227     0.10300
S359        S  0.78816678  0.40372664  0.48512040    -0.33000
S360        S  0.82995099  0.33450190  0.35500719    -0.33000
H361        H  0.83641132  0.37088120  0.34215825     0.28300
H362        H  0.82475005  0.40267941  0.99613845     0.28300
H363        H  0.75588844  0.41468303  0.42688858     0.18900
H364        H  0.85728952  0.31905925  0.41415253     0.18900
C365        C  0.81360188  0.24133215  0.49625358    -0.06900
C366        C  0.78478785  0.24300538  0.47430625    -0.18000
C367        C  0.75574077  0.21563025  0.47340889     0.10300
C368        C  0.75534021  0.18557324  0.49499133    -0.06800
C369        C  0.78691773  0.18059680  0.01338361    -0.18100
C370        C  0.81611880  0.20785241  0.01451346     0.10300
S371        S  0.72075535  0.21867933  0.44354332    -0.33000
S372        S  0.85316541  0.19965807  0.04212047    -0.33000
H373        H  0.85688702  0.23783178  0.05129115     0.28300
H374        H  0.73034111  0.25554861  0.43311339     0.28300
H375        H  0.78491264  0.26625222  0.45794937     0.18900
H376        H  0.78794609  0.15640065  0.02884085     0.18900
C377        C  0.64190164  0.16767814  0.44792073    -0.06900
C378        C  0.61716906  0.19786889  0.45397524    -0.18000
C379        C  0.60037841  0.21911162  0.43049191     0.10300
C380        C  0.60950374  0.21118035  0.39985595    -0.06800
C381        C  0.63351361  0.18035004  0.39376631    -0.18100
C382        C  0.64993479  0.15865876  0.41727143     0.10300
S383        S  0.56699202  0.25524798  0.44136593    -0.33000
S384        S  0.68430315  0.12261397  0.40758902    -0.33000
H385        H  0.68053072  0.12536522  0.37582173     0.28300
H386        H  0.54110251  0.24665788  0.41792075     0.28300
H387        H  0.61072622  0.20499324  0.47725032     0.18900
H388        H  0.64086431  0.17434216  0.37044335     0.18900
C389        C  0.61674709  0.21369369  0.10324921    -0.06900
C390        C  0.65087759  0.19407329  0.10765194    -0.18000
C391        C  0.66835068  0.17485098  0.08373268     0.10300
C392        C  0.65107821  0.17435480  0.05466340    -0.06800
C393        C  0.61665854  0.19333748  0.05034526    -0.18100
C394        C  0.59913545  0.21256671  0.07428186     0.10300
S395        S  0.71331450  0.15272233  0.09163356    -0.33000
S396        S  0.55340253  0.23324476  0.06675661    -0.33000
H397        H  0.53819003  0.22340668  0.09526092     0.28300
H398        H  0.72861174  0.15926235  0.06268880     0.28300
H399        H  0.66484414  0.19491301  0.12962933     0.18900
H400        H  0.60260257  0.19201406  0.02848027     0.18900
C401        C  0.70223133  0.97207504  0.50069059    -0.06900
C402        C  0.70441103  0.99124140  0.02878922    -0.18000
C403        C  0.70378773  0.03115669  0.03040026     0.10300
C404        C  0.69827732  0.05325533  0.50356318    -0.06800
C405        C  0.70283506  0.03437480  0.47563946    -0.18100
C406        C  0.70616843  0.99460370  0.47388454     0.10300
S407        S  0.71512950  0.05115928  0.06703355    -0.33000
S408        S  0.71735016  0.97588027  0.43683020    -0.33000
H409        H  0.73964721  0.94546834  0.44728224     0.28300
H410        H  0.73647053  0.08170190  0.05511456     0.28300
H411        H  0.70836780  0.97540217  0.04972099     0.18900
H412        H  0.70447169  0.05084173  0.45477564     0.18900
C413        C  0.65861026  0.84955261  0.05533886    -0.06900
C414        C  0.62617195  0.86456464  0.06932173    -0.18000
C415        C  0.60795910  0.84526984  0.09311336     0.10300
C416        C  0.62183973  0.80968948  0.10309331    -0.06800
C417        C  0.65382547  0.79430513  0.08918657    -0.18100
C418        C  0.67286199  0.81399014  0.06596235     0.10300
S419        S  0.56660332  0.86701584  0.10924409    -0.33000
S420        S  0.71713958  0.79449452  0.05309659    -0.33000
H421        H  0.70947030  0.75638324  0.06150691     0.28300
H422        H  0.54723624  0.83250870  0.11499423     0.28300
H423        H  0.61434206  0.89131959  0.06134642     0.18900
H424        H  0.66494030  0.76739352  0.09756566     0.18900
C425        C  0.65131288  0.85041275  0.44943586    -0.06900
C426        C  0.66637603  0.81477822  0.44121462    -0.18000
C427        C  0.65228341  0.79398115  0.41657828     0.10300
C428        C  0.62191808  0.80857417  0.39924216    -0.06800
C429        C  0.60562033  0.84333724  0.40775665    -0.18100
C430        C  0.61900395  0.86367740  0.43316475     0.10300
S431        S  0.67538784  0.74947041  0.40785900    -0.33000
S432        S  0.59089754  0.90368948  0.44514359    -0.33000
H433        H  0.59763574  0.89800209  0.47639035     0.28300
H434        H  0.67219257  0.75323597  0.37612031     0.28300
H435        H  0.69001357  0.80284286  0.45345633     0.18900
H436        H  0.58113674  0.85379521  0.39538708     0.18900
C437        C  0.14508772  0.67412499  0.05710518    -0.06900
C438        C  0.16949251  0.64349204  0.05194217    -0.18000
C439        C  0.19055778  0.62724172  0.07576187     0.10300
C440        C  0.18787696  0.64281344  0.10528255    -0.06800
C441        C  0.16304668  0.67318863  0.11042251    -0.18100
C442        C  0.14195163  0.68921441  0.08671816     0.10300
S443        S  0.21890392  0.58545491  0.06835909    -0.33000
S444        S  0.11296630  0.72986130  0.09567391    -0.33000
H445        H  0.11972182  0.74946406  0.06826517     0.28300
H446        H  0.20771433  0.58036350  0.03791523     0.28300
H447        H  0.17140967  0.63188646  0.02924191     0.18900
H448        H  0.16097913  0.68545010  0.13291288     0.18900
C449        C  0.14176817  0.67129550  0.44889948    -0.06900
C450        C  0.17233027  0.69308596  0.43792990    -0.18000
C451        C  0.19218647  0.68214490  0.41208391     0.10300
C452        C  0.18183964  0.64836139  0.39679707    -0.06800
C453        C  0.15065622  0.62702148  0.40695355    -0.18100
C454        C  0.13075128  0.63781534  0.43301950     0.10300
S455        S  0.23015876  0.71282615  0.39930379    -0.33000
S456        S  0.09329544  0.60637105  0.44562906    -0.33000
H457        H  0.09925973  0.61262328  0.47684479     0.28300
H458        H  0.22568223  0.70491323  0.36818586     0.28300
H459        H  0.18041066  0.71942092  0.44915427     0.18900
H460        H  0.14290567  0.60082892  0.39536569     0.18900
C461        C  0.82060539  0.78548805  0.49593718    -0.06900
C462        C  0.82096452  0.81175807  0.01941452    -0.18000
C463        C  0.79404600  0.84098754  0.02067059     0.10300
C464        C  0.76626146  0.84379119  0.49774184    -0.06800
C465        C  0.76832062  0.81952736  0.47276886    -0.18100
C466        C  0.79502249  0.79055864  0.47157574     0.10300
S467        S  0.79573306  0.87259953  0.05290828    -0.33000
S468        S  0.79541951  0.76180449  0.43790790    -0.33000
H469        H  0.83509755  0.75905052  0.43728119     0.28300
H470        H  0.75641709  0.87686839  0.05576516     0.28300
H471        H  0.84109376  0.80844282  0.03790660     0.18900
H472        H  0.74912499  0.82341505  0.45382150     0.18900
C473        C  0.94506896  0.71219823  0.50347510    -0.06900
C474        C  0.96453815  0.74454574  0.01423044    -0.18000
C475        C  0.00389647  0.74519542  0.01694792     0.10300
C476        C  0.02531438  0.71405163  0.50578020    -0.06800
C477        C  0.00555952  0.67999166  0.49918641    -0.18100
C478        C  0.96603197  0.67823974  0.49890535     0.10300
S479        S  0.02329767  0.78342979  0.03964729    -0.33000
S480        S  0.94345283  0.63191403  0.49444764    -0.33000
H481        H  0.97644067  0.61003574  0.49119922     0.28300
H482        H  0.05016421  0.76023628  0.05428955     0.28300
H483        H  0.94926604  0.76864831  0.02310799     0.18900
H484        H  0.02137167  0.65424662  0.49470885     0.18900
C485        C  0.82584536  0.67207225  0.44673981    -0.06900
C486        C  0.83827279  0.67934110  0.41694124    -0.18000
C487        C  0.81842354  0.66558618  0.39163386     0.10300
C488        C  0.78459592  0.64438580  0.39582002    -0.06800
C489        C  0.77269573  0.63643813  0.42565593    -0.18100
C490        C  0.79316007  0.64933594  0.45103638     0.10300
S491        S  0.83743934  0.67721299  0.35484725    -0.33000
S492        S  0.77844429  0.63418649  0.48848952    -0.33000
H493        H  0.74687250  0.61227607  0.47950458     0.28300
H494        H  0.84074666  0.63859451  0.34647208     0.28300
H495        H  0.86329861  0.69673322  0.41321300     0.18900
H496        H  0.74730108  0.61960536  0.42916157     0.18900
C497        C  0.82285515  0.67757744  0.05356724    -0.06900
C498        C  0.80060835  0.70332626  0.06985661    -0.18000
C499        C  0.77962702  0.69115650  0.09503092     0.10300
C500        C  0.78009826  0.65216841  0.10350859    -0.06800
C501        C  0.80246468  0.62645908  0.08732623    -0.18100
C502        C  0.82457105  0.63894832  0.06281969     0.10300
S503        S  0.75411668  0.72694939  0.11592628    -0.33000
S504        S  0.85413662  0.60529431  0.04312279    -0.33000
H505        H  0.85123958  0.57567851  0.06476725     0.28300
H506        H  0.72516981  0.70297983  0.12682628     0.28300
H507        H  0.80013797  0.73323233  0.06322774     0.18900
H508        H  0.80260062  0.59659438  0.09398819     0.18900
C509        C  0.20379297  0.17636004  0.49718964    -0.06900
C510        C  0.18753427  0.18771470  0.02492732    -0.18000
C511        C  0.15775125  0.21389958  0.02492023     0.10300
C512        C  0.14642342  0.23152377  0.49706917    -0.06800
C513        C  0.16146734  0.21866122  0.46963408    -0.18100
C514        C  0.18870151  0.18981516  0.46932666     0.10300
S515        S  0.13703437  0.22590359  0.06096684    -0.33000
S516        S  0.20377651  0.17254368  0.43277543    -0.33000
H517        H  0.21189195  0.13514372  0.44230708     0.28300
H518        H  0.09997679  0.22962329  0.04976842     0.28300
H519        H  0.19837389  0.17674146  0.04633312     0.18900
H520        H  0.15224777  0.23144501  0.44839583     0.18900
C521        C  0.31805909  0.16911777  0.05059976    -0.06900
C522        C  0.30724028  0.15924351  0.08029082    -0.18000
C523        C  0.32236363  0.17825768  0.10561190     0.10300
C524        C  0.34839541  0.20879544  0.10135259    -0.06800
C525        C  0.35945718  0.21815380  0.07155017    -0.18100
C526        C  0.34516596  0.19839462  0.04639183     0.10300
S527        S  0.30607319  0.16294286  0.14241984    -0.33000
S528        S  0.36386350  0.21092155  0.00965843    -0.33000
H529        H  0.36519829  0.17266104  0.49935520     0.28300
H530        H  0.34280858  0.15463839  0.15296785     0.28300
H531        H  0.28646532  0.13673774  0.08377615     0.18900
H532        H  0.37983728  0.24091409  0.06770121     0.18900
C533        C  0.31363441  0.17860125  0.44394312    -0.06900
C534        C  0.34255329  0.16167330  0.42653208    -0.18000
C535        C  0.35961517  0.18071181  0.40212664     0.10300
C536        C  0.34871131  0.21830159  0.39509217    -0.06800
C537        C  0.32120538  0.23604707  0.41271473    -0.18100
C538        C  0.30301164  0.21686631  0.43661704     0.10300
S539        S  0.39578262  0.15583039  0.38144470    -0.33000
S540        S  0.26555835  0.24231395  0.45548867    -0.33000
H541        H  0.26542757  0.27559023  0.43740996     0.28300
H542        H  0.41821823  0.18834865  0.37555401     0.28300
H543        H  0.35265741  0.13332472  0.43209829     0.18900
H544        H  0.31313871  0.26502522  0.40693380     0.18900
C545        C  0.15616974  0.77907050  0.50176741    -0.06900
C546        C  0.18441536  0.77794815  0.02383178    -0.18000
C547        C  0.21201953  0.80644351  0.02579836     0.10300
C548        C  0.21216407  0.83689818  0.50482120    -0.06800
C549        C  0.18258978  0.83911860  0.48336768    -0.18100
C550        C  0.15521562  0.81010690  0.48110792     0.10300
S551        S  0.24552603  0.80253875  0.05650471    -0.33000
S552        S  0.12225969  0.81268276  0.44976730    -0.33000
H553        H  0.12094928  0.77304587  0.44456056     0.28300
H554        H  0.24449858  0.84187423  0.06282896     0.28300
H555        H  0.18499599  0.75457789  0.04011151     0.18900
H556        H  0.18238179  0.86214519  0.46679517     0.18900
C557        C  0.27640480  0.05143557  0.49381259    -0.06900
C558        C  0.24779147  0.03138391  0.00927456    -0.18000
C559        C  0.24705308  0.99151700  0.01134775     0.10300
C560        C  0.27443932  0.96963036  0.49570149    -0.06800
C561        C  0.30574933  0.98980162  0.48385831    -0.18100
C562        C  0.30778329  0.02974080  0.48365012     0.10300
S563        S  0.21267976  0.97205635  0.03744040    -0.33000
S564        S  0.35250380  0.04986048  0.47155609    -0.33000
H565        H  0.35479265  0.07796109  0.49409864     0.28300
H566        H  0.23788711  0.94609725  0.05108361     0.28300
H567        H  0.22655997  0.04680765  0.02177325     0.18900
H568        H  0.33020176  0.97424756  0.47601106     0.18900
C569        C  0.31821665  0.84665537  0.44600205    -0.06900
C570        C  0.35123441  0.86092244  0.43206532    -0.18000
C571        C  0.36902733  0.84089187  0.40866014     0.10300
C572        C  0.35379012  0.80561323  0.39906222    -0.06800
C573        C  0.32147059  0.79095118  0.41326272    -0.18100
C574        C  0.30301875  0.81144109  0.43585015     0.10300
S575        S  0.41148653  0.86119349  0.39257230    -0.33000
S576        S  0.25786807  0.79329817  0.44775724    -0.33000
H577        H  0.24032159  0.82866615  0.44229939     0.28300
H578        H  0.42862924  0.82612315  0.38566832     0.28300
H579        H  0.36354357  0.88766828  0.43969649     0.18900
H580        H  0.30922404  0.76422637  0.40543731     0.18900
C581        C  0.32577015  0.85599661  0.05228909    -0.06900
C582        C  0.31652577  0.86748719  0.08188027    -0.18000
C583        C  0.33005420  0.84776133  0.10746310     0.10300
C584        C  0.35316581  0.81518389  0.10364874    -0.06800
C585        C  0.36347609  0.80473089  0.07400373    -0.18100
C586        C  0.35076438  0.82510357  0.04853797     0.10300
S587        S  0.31486069  0.86450298  0.14399875    -0.33000
S588        S  0.36885229  0.81123386  0.01204652    -0.33000
H589        H  0.37077247  0.84870558  0.50058869     0.28300
H590        H  0.35210558  0.87027370  0.15457526     0.28300
H591        H  0.29732127  0.89116033  0.08512380     0.18900
H592        H  0.38196735  0.78055079  0.07051200     0.18900
C593        C  0.27692464  0.92594293  0.99691823     0.85700
C594        C  0.29561346  0.90787586  0.96886089    -0.54500
C595        C  0.30014888  0.86918344  0.97074072     0.08600
C596        C  0.28594739  0.85192125  0.50097134     0.19600
C597        C  0.23954794  0.90293894  0.49921425    -0.55300
C598        C  0.24401759  0.86468709  0.00265942     0.08700
C599        C  0.30113559  0.91299056  0.52409319    -0.54800
C600        C  0.30621139  0.87450875  0.52625218     0.09300
H601        H  0.30351771  0.92403736  0.94872176     0.13800
H602        H  0.28971640  0.82055701  0.50285978    -0.00500
H603        H  0.21168600  0.91534146  0.49685491     0.14100
H604        H  0.31302636  0.93288660  0.54049761     0.13900
C605        C  0.27661402  0.09522267  0.99498735     0.85700
C606        C  0.29812772  0.11020570  0.52243019    -0.54500
C607        C  0.29962245  0.14894810  0.52449545     0.08600
C608        C  0.27861186  0.16967244  0.99877197     0.19600
C609        C  0.23724053  0.11377954  0.99721442    -0.55300
C610        C  0.23832800  0.15259198  0.99894392     0.08700
C611        C  0.29355943  0.11548098  0.96700902    -0.54800
C612        C  0.29576868  0.15462725  0.96891046     0.09300
H613        H  0.31117031  0.09150049  0.53922470     0.13800
H614        H  0.27954414  0.20085521  0.00217665    -0.00500
H615        H  0.21061837  0.09832153  0.99540636     0.14100
H616        H  0.30130945  0.10005361  0.94670220     0.13900
C617        C  0.90187235  0.71274529  0.00106371     0.85700
C618        C  0.88561825  0.69178651  0.97318446    -0.54500
C619        C  0.84703825  0.68934431  0.97245191     0.08600
C620        C  0.82810412  0.71023037  0.99908584     0.19600
C621        C  0.88298067  0.75249467  0.99900176    -0.55300
C622        C  0.84448827  0.75093187  0.99787314     0.08700
C623        C  0.88391670  0.69344433  0.52893102    -0.54800
C624        C  0.84546865  0.69239373  0.52806297     0.09300
H625        H  0.90319072  0.68027174  0.95531466     0.13800
H626        H  0.79670221  0.70986612  0.99855065    -0.00500
H627        H  0.89817715  0.77960807  0.49749340     0.14100
H628        H  0.90020825  0.68246302  0.54805762     0.10700
C629        C  0.06821360  0.71303175  0.00373739     0.85700
C630        C  0.08494226  0.69276022  0.53198504    -0.54500
C631        C  0.12319300  0.68938772  0.53161361     0.08600
C632        C  0.14152220  0.70538540  0.00235053     0.19600
C633        C  0.09011656  0.75130948  0.00109220    -0.55300
C634        C  0.12855182  0.74711680  0.00090368     0.08700
C635        C  0.08274394  0.69057566  0.97610847    -0.54800
C636        C  0.12106656  0.68620866  0.97544318     0.09300
H637        H  0.06781030  0.68281558  0.55090583     0.13800
H638        H  0.17277001  0.70204187  0.00206756    -0.00500
H639        H  0.07710703  0.77910176  0.99893253     0.14100
H640        H  0.06447080  0.68144965  0.95757257     0.13900
C641        C  0.69788926  0.92808652  0.00096482     0.85700
C642        C  0.67841002  0.91112993  0.52918178    -0.54500
C643        C  0.67612051  0.87203886  0.52960337     0.08600
C644        C  0.69246598  0.85367873  0.00099381     0.19600
C645        C  0.73612944  0.90787160  0.99932842    -0.55300
C646        C  0.73331946  0.86909801  0.99924686     0.08700
C647        C  0.67402835  0.91161997  0.97456847    -0.54800
C648        C  0.67094356  0.87258976  0.97434471     0.09300
H649        H  0.66710577  0.92819295  0.54746750     0.13800
H650        H  0.69019585  0.82217950  0.00095878    -0.00500
H651        H  0.76308291  0.92290450  0.99830269     0.14100
H652        H  0.66116716  0.92947009  0.95731429     0.13900
C653        C  0.69077187  0.09629276  0.00271234     0.85700
C654        C  0.66521865  0.10945377  0.97609698    -0.54500
C655        C  0.66111284  0.14816813  0.97369564     0.08600
C656        C  0.68138979  0.17032619  0.99929552     0.19600
C657        C  0.72773227  0.11922356  0.99888837    -0.55300
C658        C  0.72302075  0.15792522  0.99686520     0.08700
C659        C  0.67098972  0.11361120  0.53066483    -0.54800
C660        C  0.66693120  0.15231844  0.52938595     0.09300
H661        H  0.65156638  0.08987964  0.96037421     0.13800
H662        H  0.67761047  0.20200622  0.49870121    -0.00500
H663        H  0.75560738  0.10623092  0.49843615     0.14100
H664        H  0.65966207  0.09695485  0.54936641     0.13900
In665      In  0.71495116  0.60737905  0.82563726     1.36900
C666        C  0.71901676  0.60774285  0.76567986     0.76800
O667        O  0.74424582  0.55113259  0.82449774    -0.61700
O668        O  0.68642134  0.55165060  0.83790796    -0.52600
C669        C  0.76039832  0.63067718  0.87022702     0.69500
O670        O  0.76990227  0.63187245  0.84261209    -0.47400
C671        C  0.66208150  0.66030341  0.82951668     0.74200
O672        O  0.74610122  0.62002374  0.78189563    -0.59300
O673        O  0.65649505  0.62646495  0.83878909    -0.49400
O674        O  0.69081574  0.59535692  0.78017461    -0.55700
C675        C  0.71535671  0.53204889  0.83193752     0.84300
O676        O  0.72774248  0.61705690  0.87467909    -0.57600
O677        O  0.69456316  0.66685183  0.81895820    -0.60900
In678      In  0.58126529  0.74407302  0.82764519     1.36900
C679        C  0.58080484  0.74937140  0.76734608     0.76800
O680        O  0.63985297  0.72333186  0.82021286    -0.61700
O681        O  0.59981253  0.68429214  0.83932509    -0.52600
C682        C  0.60568070  0.78677005  0.87374222     0.69500
O683        O  0.60272581  0.80007397  0.84704786    -0.47400
C684        C  0.50694857  0.74296255  0.83461589     0.74200
O685        O  0.59421783  0.77600151  0.78364013    -0.59300
O686        O  0.52696606  0.71387755  0.84000524    -0.49400
O687        O  0.56784054  0.72116882  0.78192091    -0.55700
C688        C  0.63314733  0.69000948  0.82998216     0.84300
O689        O  0.59487766  0.75257241  0.87677587    -0.57600
O690        O  0.52515167  0.77273016  0.82739495    -0.60900
In691      In  0.57740485  0.28091748  0.82756790     1.36900
C692        C  0.57776082  0.27704886  0.76716270     0.76800
O693        O  0.52124199  0.25233066  0.82664620    -0.61700
O694        O  0.52328643  0.31125408  0.83883611    -0.52600
C695        C  0.59698217  0.23530163  0.87368454     0.69500
O696        O  0.59758516  0.22444324  0.84629175    -0.47400
C697        C  0.63103384  0.33346963  0.83137753     0.74200
O698        O  0.58986730  0.24977645  0.78350564    -0.59300
O699        O  0.59766671  0.33989596  0.84015149    -0.49400
O700        O  0.56556022  0.30528426  0.78173027    -0.55700
C701        C  0.50319894  0.28203443  0.83344812     0.84300
O702        O  0.58653684  0.26941214  0.87707303    -0.57600
O703        O  0.63692819  0.30005848  0.82193223    -0.60900
In704      In  0.71458958  0.41514621  0.82481286     1.36900
C705        C  0.71782366  0.41700696  0.76460123     0.76800
O706        O  0.69271435  0.35580635  0.81944998    -0.61700
O707        O  0.65626717  0.39650421  0.83973733    -0.52600
C708        C  0.76153856  0.39273413  0.86891426     0.69500
O709        O  0.76793484  0.38645283  0.84116909    -0.47400
C710        C  0.71524526  0.49020408  0.83153557     0.74200
O711        O  0.74497112  0.40414801  0.78041394    -0.59300
O712        O  0.68612123  0.47025560  0.83706967    -0.49400
O713        O  0.68998052  0.42871914  0.77958691    -0.55700
C714        C  0.66075484  0.36266765  0.83060356     0.84300
O715        O  0.73139341  0.41086744  0.87359761    -0.57600
O716        O  0.74411282  0.47156850  0.82386075    -0.60900
In717      In  0.25165169  0.60877191  0.82922981     1.36900
C718        C  0.24936038  0.60877618  0.76929520     0.76800
O719        O  0.27428847  0.66753814  0.82150039    -0.61700
O720        O  0.31058528  0.62707277  0.84312110    -0.52600
C721        C  0.20566877  0.63277996  0.87245135     0.69500
O722        O  0.19519793  0.63077448  0.84501539    -0.47400
C723        C  0.25047948  0.53334866  0.83444504     0.74200
O724        O  0.22241778  0.62232497  0.78464817    -0.59300
O725        O  0.27906349  0.55295258  0.84216139    -0.49400
O726        O  0.27661019  0.59572735  0.78461913    -0.55700
C727        C  0.30656769  0.66047915  0.83247180     0.84300
O728        O  0.23898247  0.62175951  0.87769108    -0.57600
O729        O  0.22202307  0.55246096  0.82632370    -0.60900
In730      In  0.39111377  0.74140389  0.82749455     1.36900
C731        C  0.39008002  0.74686242  0.76738313     0.76800
O732        O  0.44664456  0.77167294  0.82833387    -0.61700
O733        O  0.44621542  0.71211016  0.83872104    -0.52600
C734        C  0.36868900  0.78409127  0.87327124     0.69500
O735        O  0.37252823  0.79771822  0.84676721    -0.47400
C736        C  0.33705521  0.68902811  0.83164114     0.74200
O737        O  0.37751018  0.77345541  0.78385039    -0.59300
O738        O  0.37053517  0.68243974  0.84055812    -0.49400
O739        O  0.40276837  0.71834243  0.78169826    -0.55700
C740        C  0.46554771  0.74219231  0.83453712     0.84300
O741        O  0.37726542  0.74935160  0.87624257    -0.57600
O742        O  0.33158928  0.72211131  0.82095163    -0.60900
In743      In  0.25184578  0.41667723  0.82461558     1.36900
C744        C  0.24843261  0.41624798  0.76436474     0.76800
O745        O  0.22254190  0.47297614  0.82290045    -0.61700
O746        O  0.27935839  0.47170989  0.83939882    -0.52600
C747        C  0.20799820  0.39289703  0.87007843     0.69500
O748        O  0.19785231  0.39035881  0.84251373    -0.47400
C749        C  0.30578794  0.36482096  0.82789834     0.74200
O750        O  0.22117254  0.40400272  0.78029498    -0.59300
O751        O  0.31169387  0.39921182  0.83531702    -0.49400
O752        O  0.27612852  0.42929479  0.77925276    -0.55700
C753        C  0.25068913  0.49157077  0.83278619     0.84300
O754        O  0.24018094  0.40784863  0.87391878    -0.57600
O755        O  0.27231335  0.35704261  0.81997286    -0.60900
In756      In  0.38795565  0.28275638  0.82414190     1.36900
C757        C  0.38768455  0.27619325  0.76424245     0.76800
O758        O  0.32847241  0.30207648  0.81907577    -0.61700
O759        O  0.36951637  0.34272066  0.83444216    -0.52600
C760        C  0.36437682  0.23996416  0.86975078     0.69500
O761        O  0.36737639  0.22674520  0.84318216    -0.47400
C762        C  0.46191391  0.28250252  0.83276950     0.74200
O763        O  0.37478429  0.24979103  0.78105486    -0.59300
O764        O  0.44264374  0.31242952  0.83639591    -0.49400
O765        O  0.40040300  0.30494534  0.77811925    -0.55700
C766        C  0.33540800  0.33586540  0.82741170     0.84300
O767        O  0.37432031  0.27440445  0.87280091    -0.57600
O768        O  0.44311975  0.25288071  0.82641529    -0.60900
C769        C  0.89932368  0.31046954  0.00240821     0.85700
C770        C  0.88049742  0.33120850  0.52952168    -0.54500
C771        C  0.84181681  0.33288060  0.52806550     0.08600
C772        C  0.82568541  0.31535152  0.99866476     0.19600
C773        C  0.87895725  0.27161883  0.99972268    -0.55300
C774        C  0.84043805  0.27401088  0.99811912     0.08700
C775        C  0.88486440  0.33372312  0.97480616    -0.54800
C776        C  0.84647603  0.33596002  0.97266569     0.09300
H777        H  0.89624633  0.34422826  0.54795714     0.13800
H778        H  0.79450059  0.31773986  0.99661184    -0.00500
H779        H  0.89397016  0.24467195  0.99866497     0.14100
H780        H  0.90323611  0.34711339  0.95810573     0.13900
C781        C  0.06696070  0.30537842  0.99858390     0.85700
C782        C  0.08303412  0.32735163  0.97104133    -0.54500
C783        C  0.12149050  0.32698531  0.96924162     0.08600
C784        C  0.14087825  0.30651529  0.99597155     0.19600
C785        C  0.08489583  0.26557714  0.99763291    -0.55300
C786        C  0.12335855  0.26614502  0.99657776     0.08700
C787        C  0.08642867  0.32513926  0.52632344    -0.54800
C788        C  0.12536756  0.32584144  0.52529030     0.09300
H789        H  0.06573066  0.34234297  0.95444107     0.13800
H790        H  0.17191989  0.30700708  0.99322860    -0.00500
H791        H  0.06852638  0.23928636  0.49835497     0.14100
H792        H  0.07101107  0.33774353  0.54492337     0.13900
In793      In  0.71323084  0.61076008  0.67248139     1.36900
C794        C  0.71881918  0.60819707  0.73245855     0.76800
O795        O  0.69190930  0.66905357  0.68078564    -0.61700
O796        O  0.65403446  0.62890588  0.66036110    -0.52600
C797        C  0.75690397  0.63721836  0.62850820     0.69500
O798        O  0.76747222  0.63727869  0.65597366    -0.47400
C799        C  0.71308920  0.53635465  0.66372394     0.74200
O800        O  0.74512051  0.62208125  0.71636499    -0.59300
O801        O  0.68380347  0.55622521  0.65946672    -0.49400
O802        O  0.69093239  0.59517247  0.71782879    -0.55700
C803        C  0.65927037  0.66227386  0.67045765     0.84300
O804        O  0.72456194  0.62312649  0.62360473    -0.57600
O805        O  0.74265030  0.55487255  0.67049608    -0.60900
In806      In  0.57887834  0.74548468  0.67369412     1.36900
C807        C  0.58021508  0.74963683  0.73397740     0.76800
O808        O  0.52329714  0.77481856  0.67416790    -0.61700
O809        O  0.52425420  0.71664919  0.66007852    -0.52600
C810        C  0.60486703  0.78840751  0.62839237     0.69500
O811        O  0.60033475  0.80167673  0.65479296    -0.47400
C812        C  0.63003658  0.69142624  0.67089969     0.74200
O813        O  0.59279285  0.77667700  0.71760061    -0.59300
O814        O  0.59639199  0.68568903  0.66198331    -0.49400
O815        O  0.56702330  0.72155119  0.71948715    -0.55700
C816        C  0.50469289  0.74568225  0.66621328     0.84300
O817        O  0.59494232  0.75402493  0.62517305    -0.57600
O818        O  0.63706537  0.72447087  0.68085614    -0.60900
In819      In  0.57793749  0.28183978  0.67330301     1.36900
C820        C  0.57785731  0.27728627  0.73375399     0.76800
O821        O  0.63697195  0.30339508  0.67776616    -0.61700
O822        O  0.59540880  0.34214639  0.66100816    -0.52600
C823        C  0.60113072  0.23714633  0.62844280     0.69500
O824        O  0.60640307  0.22879643  0.65615291    -0.47400
C825        C  0.50359519  0.27963234  0.66565896     0.74200
O826        O  0.58883967  0.24972540  0.71757489    -0.59300
O827        O  0.52280807  0.30942625  0.66008486    -0.49400
O828        O  0.56688782  0.30618047  0.71901271    -0.55700
C829        C  0.62947549  0.33674850  0.66872656     0.84300
O830        O  0.58370659  0.26805046  0.62397119    -0.57600
O831        O  0.52258691  0.25089717  0.67386108    -0.60900
In832      In  0.71155746  0.41991299  0.67124365     1.36900
C833        C  0.71728983  0.41825763  0.73131904     0.76800
O834        O  0.74158672  0.47577170  0.67062615    -0.61700
O835        O  0.68298586  0.47512919  0.65877821    -0.52600
C836        C  0.75401588  0.39756356  0.62552814     0.69500
O837        O  0.76746636  0.40219266  0.65194179    -0.47400
C838        C  0.65845034  0.36675286  0.66844390     0.74200
O839        O  0.74292023  0.40455121  0.71468957    -0.59300
O840        O  0.65207072  0.40090734  0.66034367    -0.49400
O841        O  0.68986008  0.43295078  0.71717757    -0.55700
C842        C  0.71258309  0.49467905  0.66359036     0.84300
O843        O  0.71929020  0.40481901  0.62260389    -0.57600
O844        O  0.69182951  0.36008012  0.67724355    -0.60900
In845      In  0.25589309  0.60724110  0.67632435     1.36900
C846        C  0.25026973  0.60812854  0.73613688     0.76800
O847        O  0.22635626  0.55097945  0.67614198    -0.61700
O848        O  0.28469199  0.55243898  0.66399816    -0.52600
C849        C  0.21147733  0.62920739  0.63123022     0.69500
O850        O  0.20163589  0.63192917  0.65871327    -0.47400
C851        C  0.30868770  0.66034613  0.67135580     0.74200
O852        O  0.22365729  0.61992225  0.71928639    -0.59300
O853        O  0.31453845  0.62628856  0.66327859    -0.49400
O854        O  0.27877125  0.59564676  0.72234897    -0.55700
C855        C  0.25527221  0.53254694  0.66839992     0.84300
O856        O  0.24383717  0.61525304  0.62725840    -0.57600
O857        O  0.27606839  0.66692496  0.68137729    -0.60900
In858      In  0.38934510  0.74448225  0.67389378     1.36900
C859        C  0.38998866  0.74765340  0.73408055     0.76800
O860        O  0.33078818  0.72328508  0.68030147    -0.61700
O861        O  0.37078377  0.68504496  0.66104307    -0.52600
C862        C  0.36631236  0.79073412  0.62940173     0.69500
O863        O  0.36364466  0.79938557  0.65713824    -0.47400
C864        C  0.46338217  0.74536648  0.66655258     0.74200
O865        O  0.37809891  0.77534814  0.71812200    -0.59300
O866        O  0.44370362  0.71604475  0.66059748    -0.49400
O867        O  0.40183055  0.71950198  0.71922769    -0.55700
C868        C  0.33751276  0.69026888  0.67047883     0.84300
O869        O  0.38096354  0.75847360  0.62483118    -0.57600
O870        O  0.44498774  0.77422680  0.67487771    -0.60900
In871      In  0.25430138  0.41577189  0.67102516     1.36900
C872        C  0.24925099  0.41539872  0.73107286     0.76800
O873        O  0.27404776  0.35597534  0.67736057    -0.61700
O874        O  0.31293967  0.39650040  0.65865712    -0.52600
C875        C  0.21119265  0.39433026  0.62454950     0.69500
O876        O  0.19890328  0.39442222  0.65149469    -0.47400
C877        C  0.25475784  0.49091303  0.66657417     0.74200
O878        O  0.22261459  0.40265938  0.71455137    -0.59300
O879        O  0.28369774  0.47137408  0.66049689    -0.49400
O880        O  0.27778681  0.42749078  0.71683947    -0.55700
C881        C  0.30687348  0.36251122  0.66737921     0.84300
O882        O  0.24471875  0.40616478  0.62153598    -0.57600
O883        O  0.22539230  0.47189030  0.67278757    -0.60900
In884      In  0.38757893  0.27847075  0.67090329     1.36900
C885        C  0.38781433  0.27513689  0.73101988     0.76800
O886        O  0.44365472  0.24935751  0.67259679    -0.61700
O887        O  0.44233030  0.30765355  0.65836098    -0.52600
C888        C  0.36315470  0.23257903  0.62667845     0.69500
O889        O  0.36087454  0.22372091  0.65448395    -0.47400
C890        C  0.33572578  0.33266974  0.66708918     0.74200
O891        O  0.37616413  0.24720086  0.71530270    -0.59300
O892        O  0.36919651  0.33810275  0.65796894    -0.49400
O893        O  0.39954790  0.30347690  0.71597821    -0.55700
C894        C  0.46215034  0.27875790  0.66486890     0.84300
O895        O  0.37891599  0.26449743  0.62183193    -0.57600
O896        O  0.32883445  0.29951204  0.67699458    -0.60900
C897        C  0.18945016  0.37914692  0.59857685    -0.06900
C898        C  0.20476750  0.34812495  0.58317104    -0.18000
C899        C  0.18551106  0.33036728  0.55909475     0.10300
C900        C  0.14931430  0.34412228  0.54982540    -0.06800
C901        C  0.13486567  0.37645992  0.56493686    -0.18100
C902        C  0.15443757  0.39402036  0.58898603     0.10300
S903        S  0.20774540  0.28894952  0.54288850    -0.33000
S904        S  0.13380146  0.43591213  0.60579389    -0.33000
H905        H  0.16798079  0.45292199  0.61529643     0.28300
H906        H  0.24464854  0.29595013  0.55374080     0.28300
H907        H  0.23169944  0.33689746  0.59087383     0.18900
H908        H  0.10825354  0.38879676  0.55770894     0.18900
C909        C  0.94264140  0.30589384  0.00315406    -0.06900
C910        C  0.96114910  0.30001840  0.97534428    -0.18000
C911        C  0.00050033  0.29726943  0.97333318     0.10300
C912        C  0.02341448  0.30323937  0.99958471    -0.06800
C913        C  0.00434100  0.30305580  0.52806940    -0.18100
C914        C  0.96468929  0.30246781  0.53010975     0.10300
S915        S  0.01832069  0.28396661  0.93659151    -0.33000
S916        S  0.94571222  0.29240368  0.56728201    -0.33000
H917        H  0.91594904  0.26928190  0.55655313     0.28300
H918        H  0.04401680  0.25689551  0.94783427     0.28300
H919        H  0.94464767  0.29632364  0.95474506     0.18900
H920        H  0.02044130  0.30107963  0.54897377     0.18900
C921        C  0.81831272  0.34983920  0.55259662    -0.06900
C922        C  0.82953685  0.38492276  0.56545171    -0.18000
C923        C  0.80885211  0.40167387  0.58896452     0.10300
C924        C  0.77636353  0.38290633  0.60014828    -0.06800
C925        C  0.76489140  0.34827100  0.58732909    -0.18100
C926        C  0.78561397  0.33129917  0.56412493     0.10300
S927        S  0.82468937  0.44732396  0.60319140    -0.33000
S928        S  0.77034183  0.28478826  0.55180425    -0.33000
H929        H  0.76384918  0.27099079  0.58145216     0.28300
H930        H  0.78862602  0.46093688  0.61085781     0.28300
H931        H  0.85429416  0.39970132  0.55682248     0.18900
H932        H  0.74001237  0.33376122  0.59608990     0.18900
C933        C  0.18480494  0.37808229  0.89572090    -0.06900
C934        C  0.15907503  0.34821727  0.88996931    -0.18000
C935        C  0.13854321  0.33083274  0.91355630     0.10300
C936        C  0.14270234  0.34434546  0.94353677    -0.06800
C937        C  0.16816917  0.37425538  0.94942700    -0.18100
C938        C  0.18922817  0.39137326  0.92593639     0.10300
S939        S  0.10958527  0.28938830  0.90556026    -0.33000
S940        S  0.22073309  0.43067571  0.93497853    -0.33000
H941        H  0.21175060  0.43331061  0.96599397     0.28300
H942        H  0.11517265  0.28892705  0.87394690     0.28300
H943        H  0.15617855  0.33746210  0.86705582     0.18900
H944        H  0.17138415  0.38420752  0.97255645     0.18900
C945        C  0.78633630  0.37993865  0.89443683    -0.06900
C946        C  0.77830202  0.39362562  0.92372248    -0.18000
C947        C  0.79846787  0.38114812  0.94931797     0.10300
C948        C  0.82693161  0.35341992  0.94610018    -0.06800
C949        C  0.83580800  0.34034746  0.91689553    -0.18100
C950        C  0.81625693  0.35348134  0.89110969     0.10300
S951        S  0.78724983  0.40258681  0.98527595    -0.33000
S952        S  0.82994613  0.33392103  0.85507975    -0.33000
H953        H  0.83696810  0.37008844  0.84204827     0.28300
H954        H  0.82588102  0.40360725  0.49550128     0.28300
H955        H  0.75609103  0.41446323  0.92684167     0.18900
H956        H  0.85772224  0.31907239  0.91420684     0.18900
C957        C  0.81423078  0.24067976  0.99552687    -0.06900
C958        C  0.78410895  0.24384900  0.97480657    -0.18000
C959        C  0.75486727  0.21668035  0.97377906     0.10300
C960        C  0.75538154  0.18530247  0.99415636    -0.06800
C961        C  0.78547872  0.18256556  0.51581111    -0.18100
C962        C  0.81414680  0.21034976  0.51706520     0.10300
S963        S  0.71845512  0.22178852  0.94517028    -0.33000
S964        S  0.84811247  0.20649768  0.54762645    -0.33000
H965        H  0.84806667  0.24564826  0.55471557     0.28300
H966        H  0.72993847  0.25759668  0.93368857     0.28300
H967        H  0.78337694  0.26812535  0.95945157     0.18900
H968        H  0.78558951  0.15955488  0.53239168     0.18900
C969        C  0.64165412  0.16730035  0.94764824    -0.06900
C970        C  0.61678490  0.19736988  0.95365926    -0.18000
C971        C  0.60000372  0.21854961  0.93014967     0.10300
C972        C  0.60916614  0.21058861  0.89952550    -0.06800
C973        C  0.63325530  0.17980542  0.89346874    -0.18100
C974        C  0.64980199  0.15828307  0.91702204     0.10300
S975        S  0.56670094  0.25477849  0.94099360    -0.33000
S976        S  0.68452666  0.12255025  0.90745141    -0.33000
H977        H  0.67962176  0.12409771  0.87573009     0.28300
H978        H  0.54074056  0.24611677  0.91761455     0.28300
H979        H  0.61029089  0.20449605  0.97692732     0.18900
H980        H  0.64068041  0.17380785  0.87015993     0.18900
C981        C  0.61580528  0.21361387  0.60324142    -0.06900
C982        C  0.64991621  0.19404205  0.60779927    -0.18000
C983        C  0.66759706  0.17484487  0.58399778     0.10300
C984        C  0.65055245  0.17427751  0.55484594    -0.06800
C985        C  0.61606516  0.19311796  0.55037402    -0.18100
C986        C  0.59834174  0.21238037  0.57421458     0.10300
S987        S  0.71255113  0.15289670  0.59221462    -0.33000
S988        S  0.55264981  0.23303389  0.56646299    -0.33000
H989        H  0.53729411  0.22342965  0.59496464     0.28300
H990        H  0.72789166  0.15903428  0.56326840     0.28300
H991        H  0.66376096  0.19494270  0.62982604     0.18900
H992        H  0.60214675  0.19170245  0.52845818     0.18900
C993        C  0.70207429  0.97182367  0.00088398    -0.06900
C994        C  0.70478273  0.99136037  0.52865069    -0.18000
C995        C  0.70419996  0.03127125  0.53038992     0.10300
C996        C  0.69792813  0.05302418  0.00349206    -0.06800
C997        C  0.70247231  0.03400251  0.97563452    -0.18100
C998        C  0.70596946  0.99424127  0.97401912     0.10300
S999        S  0.71548994  0.05114503  0.56707993    -0.33000
S1000       S  0.71729781  0.97536117  0.93704921    -0.33000
H1001       H  0.74023246  0.94552206  0.94764285     0.28300
H1002       H  0.73667113  0.08187904  0.55529361     0.28300
H1003       H  0.70875804  0.97540095  0.54952672     0.18900
H1004       H  0.70404580  0.05036168  0.95471564     0.18900
C1005       C  0.65848616  0.84993807  0.55519318    -0.06900
C1006       C  0.62607674  0.86495797  0.56923770    -0.18000
C1007       C  0.60798209  0.84571953  0.59313758     0.10300
C1008       C  0.62208863  0.81030845  0.60329498    -0.06800
C1009       C  0.65408483  0.79497705  0.58939137    -0.18100
C1010       C  0.67286159  0.81446702  0.56593021     0.10300
S1011       S  0.56636196  0.86716900  0.60907478    -0.33000
S1012       S  0.71687831  0.79469267  0.55277726    -0.33000
H1013       H  0.70937462  0.75672233  0.56167454     0.28300
H1014       H  0.54720298  0.83249491  0.61464862     0.28300
H1015       H  0.61412476  0.89161239  0.56117482     0.18900
H1016       H  0.66530861  0.76815797  0.59785884     0.18900
C1017       C  0.65116255  0.85019531  0.94974136    -0.06900
C1018       C  0.66591167  0.81434430  0.94172145    -0.18000
C1019       C  0.65175887  0.79355649  0.91710782     0.10300
C1020       C  0.62192267  0.80856229  0.89940355    -0.06800
C1021       C  0.60595441  0.84356703  0.90769076    -0.18100
C1022       C  0.61913624  0.86372144  0.93325035     0.10300
S1023       S  0.67399251  0.74840617  0.90899452    -0.33000
S1024       S  0.59095597  0.90368322  0.94522944    -0.33000
H1025       H  0.59738451  0.89773412  0.97649002     0.28300
H1026       H  0.67135883  0.75178875  0.87720038     0.28300
H1027       H  0.68932283  0.80218106  0.95410728     0.18900
H1028       H  0.58176430  0.85429147  0.89508916     0.18900
C1029       C  0.14512812  0.67416268  0.55756706    -0.06900
C1030       C  0.16970055  0.64368973  0.55235053    -0.18000
C1031       C  0.19068927  0.62736776  0.57616044     0.10300
C1032       C  0.18767876  0.64264430  0.60574964    -0.06800
C1033       C  0.16266250  0.67283468  0.61096781    -0.18100
C1034       C  0.14174464  0.68903114  0.58723719     0.10300
S1035       S  0.21946113  0.58591256  0.56862482    -0.33000
S1036       S  0.11282883  0.72972349  0.59620353    -0.33000
H1037       H  0.11979836  0.74940469  0.56885974     0.28300
H1038       H  0.20838373  0.58090760  0.53814665     0.28300
H1039       H  0.17184689  0.63228720  0.52959925     0.18900
H1040       H  0.16041152  0.68489957  0.63351837     0.18900
C1041       C  0.14143061  0.67146406  0.94851577    -0.06900
C1042       C  0.17175722  0.69339104  0.93732257    -0.18000
C1043       C  0.19171186  0.68224684  0.91158570     0.10300
C1044       C  0.18173145  0.64809041  0.89667543    -0.06800
C1045       C  0.15080094  0.62655900  0.90708207    -0.18100
C1046       C  0.13071769  0.63763422  0.93298456     0.10300
S1047       S  0.22941106  0.71308446  0.89852970    -0.33000
S1048       S  0.09335850  0.60620896  0.94580611    -0.33000
H1049       H  0.09922607  0.61289821  0.97697347     0.28300
H1050       H  0.22507681  0.70464140  0.86749235     0.28300
H1051       H  0.17958937  0.71995926  0.94831261     0.18900
H1052       H  0.14332027  0.60010095  0.89576937     0.18900
C1053       C  0.82046797  0.78524254  0.99558599    -0.06900
C1054       C  0.82090615  0.81193602  0.51982550    -0.18000
C1055       C  0.79391792  0.84113793  0.52102632     0.10300
C1056       C  0.76623977  0.84359522  0.99751506    -0.06800
C1057       C  0.76808170  0.81925626  0.97255692    -0.18100
C1058       C  0.79479856  0.79029024  0.97127957     0.10300
S1059       S  0.79538163  0.87269039  0.55331210    -0.33000
S1060       S  0.79516740  0.76154113  0.93759527    -0.33000
H1061       H  0.83483600  0.75864228  0.93699512     0.28300
H1062       H  0.75607584  0.87738790  0.55579028     0.28300
H1063       H  0.84093161  0.80859483  0.53838659     0.18900
H1064       H  0.74868593  0.82305596  0.95372015     0.18900
C1065       C  0.94494446  0.71223953  0.00328675    -0.06900
C1066       C  0.96472150  0.74451870  0.51432705    -0.18000
C1067       C  0.00408336  0.74516128  0.51702240     0.10300
C1068       C  0.02513967  0.71415507  0.00559837    -0.06800
C1069       C  0.00543029  0.68010862  0.99892198    -0.18100
C1070       C  0.96592928  0.67833174  0.99859624     0.10300
S1071       S  0.02350962  0.78362330  0.53946770    -0.33000
S1072       S  0.94344982  0.63196156  0.99412454    -0.33000
H1073       H  0.97612109  0.61100803  0.98722408     0.28300
H1074       H  0.05043117  0.76060602  0.55422644     0.28300
H1075       H  0.94949897  0.76867794  0.52315085     0.18900
H1076       H  0.02126521  0.65435843  0.99450372     0.18900
C1077       C  0.82599710  0.67160612  0.94664178    -0.06900
C1078       C  0.83844694  0.67890862  0.91686357    -0.18000
C1079       C  0.81857098  0.66526877  0.89155618     0.10300
C1080       C  0.78476479  0.64405312  0.89573412    -0.06800
C1081       C  0.77292000  0.63591479  0.92555454    -0.18100
C1082       C  0.79333553  0.64884470  0.95094081     0.10300
S1083       S  0.83740332  0.67726540  0.85478137    -0.33000
S1084       S  0.77866203  0.63360850  0.98838012    -0.33000
H1085       H  0.74460901  0.61567899  0.97966712     0.28300
H1086       H  0.84101356  0.63872760  0.84626439     0.28300
H1087       H  0.86344491  0.69634597  0.91314446     0.18900
H1088       H  0.74764671  0.61888040  0.92903776     0.18900
C1089       C  0.82288858  0.67772393  0.55374914    -0.06900
C1090       C  0.80059820  0.70346677  0.57001107    -0.18000
C1091       C  0.77967574  0.69134310  0.59523639     0.10300
C1092       C  0.78026563  0.65235806  0.60377039    -0.06800
C1093       C  0.80265228  0.62666042  0.58759721    -0.18100
C1094       C  0.82461444  0.63910023  0.56299766     0.10300
S1095       S  0.75417738  0.72730688  0.61601668    -0.33000
S1096       S  0.85395539  0.60540703  0.54310434    -0.33000
H1097       H  0.84858847  0.57453957  0.56328285     0.28300
H1098       H  0.72728899  0.70322014  0.62970911     0.28300
H1099       H  0.80007297  0.73335456  0.56332988     0.18900
H1100       H  0.80285024  0.59682209  0.59432362     0.18900
C1101       C  0.20384216  0.17604735  0.99762161    -0.06900
C1102       C  0.18695375  0.18728527  0.52448007    -0.18000
C1103       C  0.15719132  0.21349149  0.52457072     0.10300
C1104       C  0.14649050  0.23121798  0.99726614    -0.06800
C1105       C  0.16106762  0.21770315  0.96987790    -0.18100
C1106       C  0.18833955  0.18889664  0.96972401     0.10300
S1107       S  0.13608381  0.22470333  0.56064401    -0.33000
S1108       S  0.20318368  0.17109365  0.93328695    -0.33000
H1109       H  0.21039492  0.13359447  0.94306009     0.28300
H1110       H  0.09923461  0.22948809  0.54930790     0.28300
H1111       H  0.19740140  0.17574445  0.54582543     0.18900
H1112       H  0.15151402  0.23001092  0.94855351     0.18900
C1113       C  0.31800027  0.16887780  0.55054074    -0.06900
C1114       C  0.30729905  0.15888276  0.58024173    -0.18000
C1115       C  0.32239712  0.17789242  0.60558814     0.10300
C1116       C  0.34835593  0.20849784  0.60137942    -0.06800
C1117       C  0.35938122  0.21793711  0.57158050    -0.18100
C1118       C  0.34512610  0.19817099  0.54638737     0.10300
S1119       S  0.30599203  0.16266056  0.64238040    -0.33000
S1120       S  0.36398689  0.21062076  0.50969255    -0.33000
H1121       H  0.36522463  0.17296528  0.99933049     0.28300
H1122       H  0.34265448  0.15392321  0.65286606     0.28300
H1123       H  0.28656577  0.13634148  0.58371910     0.18900
H1124       H  0.37973619  0.24073306  0.56777200     0.18900
C1125       C  0.31351029  0.17845956  0.94411426    -0.06900
C1126       C  0.34270029  0.16162863  0.92694200    -0.18000
C1127       C  0.35979327  0.18063673  0.90255631     0.10300
C1128       C  0.34855080  0.21804581  0.89528903    -0.06800
C1129       C  0.32071636  0.23567635  0.91264789    -0.18100
C1130       C  0.30261368  0.21656260  0.93660828     0.10300
S1131       S  0.39639644  0.15597043  0.88219566    -0.33000
S1132       S  0.26485985  0.24177329  0.95529232    -0.33000
H1133       H  0.26627090  0.27602582  0.93844704     0.28300
H1134       H  0.41850253  0.18867351  0.87615232     0.28300
H1135       H  0.35298057  0.13339927  0.93269870     0.18900
H1136       H  0.31233269  0.26447981  0.90660716     0.18900
C1137       C  0.15592830  0.77926991  0.00162254    -0.06900
C1138       C  0.18462181  0.77782092  0.52401145    -0.18000
C1139       C  0.21230701  0.80624326  0.52586930     0.10300
C1140       C  0.21180078  0.83723406  0.00487603    -0.06800
C1141       C  0.18219339  0.83952451  0.98345428    -0.18100
C1142       C  0.15488201  0.81044569  0.98109410     0.10300
S1143       S  0.24579492  0.80243501  0.55659774    -0.33000
S1144       S  0.12191723  0.81308850  0.94976285    -0.33000
H1145       H  0.12072478  0.77347652  0.94442375     0.28300
H1146       H  0.24473661  0.84178652  0.56284823     0.28300
H1147       H  0.18511619  0.75456028  0.54039677     0.18900
H1148       H  0.18193728  0.86264328  0.96696479     0.18900
C1149       C  0.27686068  0.05143750  0.99418170    -0.06900
C1150       C  0.24669163  0.03130778  0.50803701    -0.18000
C1151       C  0.24605225  0.99144090  0.51028631     0.10300
C1152       C  0.27464868  0.96970740  0.99583600    -0.06800
C1153       C  0.30559856  0.98981014  0.98331829    -0.18100
C1154       C  0.30779757  0.02972489  0.98322571     0.10300
S1155       S  0.21093046  0.97213212  0.53579898    -0.33000
S1156       S  0.35231373  0.04970739  0.97050733    -0.33000
H1157       H  0.35490850  0.07807185  0.99283920     0.28300
H1158       H  0.23592043  0.94654621  0.55016197     0.28300
H1159       H  0.22488502  0.04664230  0.51993682     0.18900
H1160       H  0.32974199  0.97424740  0.97490916     0.18900
C1161       C  0.31772945  0.84673592  0.94583802    -0.06900
C1162       C  0.35068252  0.86109756  0.93185286    -0.18000
C1163       C  0.36847913  0.84113412  0.90842109     0.10300
C1164       C  0.35316617  0.80595158  0.89869576    -0.06800
C1165       C  0.32089776  0.79120384  0.91291989    -0.18100
C1166       C  0.30259046  0.81148614  0.93570142     0.10300
S1167       S  0.41118893  0.86125451  0.89262079    -0.33000
S1168       S  0.25783543  0.79283383  0.94808660    -0.33000
H1169       H  0.23980175  0.82795089  0.94267242     0.28300
H1170       H  0.42820439  0.82610954  0.88574765     0.28300
H1171       H  0.36301952  0.88780490  0.93954081     0.18900
H1172       H  0.30869002  0.76446593  0.90508518     0.18900
C1173       C  0.32597482  0.85619491  0.55243537    -0.06900
C1174       C  0.31657151  0.86761532  0.58201661    -0.18000
C1175       C  0.33001966  0.84787207  0.60762397     0.10300
C1176       C  0.35344497  0.81552646  0.60384202    -0.06800
C1177       C  0.36402399  0.80524123  0.57422709    -0.18100
C1178       C  0.35113934  0.82542154  0.54873167     0.10300
S1179       S  0.31404790  0.86404578  0.64410844    -0.33000
S1180       S  0.36900507  0.81122407  0.51225129    -0.33000
H1181       H  0.37062868  0.84880556  0.00055898     0.28300
H1182       H  0.35103847  0.87001076  0.65517955     0.28300
H1183       H  0.29717319  0.89113320  0.58522364     0.18900
H1184       H  0.38270384  0.78120202  0.57076653     0.18900
loop_ 
_geom_bond_atom_site_label_1 
_geom_bond_atom_site_label_2 
_geom_bond_distance 
_geom_bond_site_symmetry_2 
_ccdc_geom_bond_type 
C1            C2   1.544       .  S
C1          C599   1.535       .  S
C1          C597   1.544       .  S
C1          C560   1.535       .  S
C2            H9   1.086       .  S
C2            C3   1.366       .  D
C3          C596   1.543       .  S
C3          C569   1.492       .  S
C4            C8   1.539       .  S
C4          C595   1.543   1_554  S
C4          C598   1.540       .  S
C4           H10   1.108       .  S
C5          C593   1.544       .  S
C5           H11   1.083       .  S
C5          C598   1.366   1_556  D
C6          C596   1.540       .  S
C6          C597   1.366       .  D
C6          C548   1.488       .  S
C7          C593   1.534   1_554  S
C7           H12   1.087       .  S
C7            C8   1.361       .  D
C8          C581   1.487       .  S
C13          C19   1.540       .  S
C13          C17   1.542       .  S
C13         C606   1.533       .  S
C13         C557   1.534       .  S
C14         C605   1.533   1_554  S
C14          H21   1.087       .  S
C14          C15   1.359       .  D
C15         C608   1.537   1_554  S
C15         C521   1.487       .  S
C16          C20   1.547       .  S
C16          C18   1.541       .  S
C16         C607   1.538       .  S
C16          H22   1.102       .  S
C17          H23   1.085       .  S
C17          C18   1.360       .  D
C18         C509   1.474       .  S
C19          H24   1.084       .  S
C19          C20   1.375       .  D
C20         C533   1.509       .  S
C25          C26   1.540       .  S
C25          C29   1.549       .  S
C25         C623   1.531       .  S
C25         C473   1.526       .  S
C26          H33   1.085       .  S
C26          C27   1.366       .  D
C27          C28   1.543       .  S
C27         C485   1.492       .  S
C28          C30   1.534       .  S
C28         C624   1.537       .  S
C28          H34   1.110       .  S
C29         H627   1.084       .  S
C29          C30   1.362       .  D
C30         C461   1.477       .  S
C31         C617   1.531       .  S
C31          H36   1.087       .  S
C31          C32   1.359       .  D
C32         C620   1.537   1_554  S
C32         C497   1.475       .  S
H35         C621   1.084       .  S
C37          C43   1.543       .  S
C37          C41   1.547       .  S
C37         C630   1.531       .  S
C37         C476   1.526       .  S
C38         C629   1.531       .  S
C38          H45   1.087       .  S
C38          C39   1.358       .  D
C39         C632   1.532       .  S
C39         C437   1.476       .  S
C40          C44   1.539       .  S
C40          C42   1.533       .  S
C40         C631   1.532       .  S
C40          H46   1.111       .  S
C41          H47   1.081       .  S
C41          C42   1.367       .  D
C42         C545   1.479       .  S
C43          H48   1.086       .  S
C43          C44   1.365       .  D
C44         C449   1.487       .  S
C49          C55   1.544       .  S
C49          C53   1.531       .  S
C49         C642   1.551       .  S
C49         C401   1.536       .  S
C50         C641   1.550       .  S
C50          H57   1.084       .  S
C50          C51   1.369       .  D
C51         C644   1.535       .  S
C51         C413   1.498       .  S
C52          C56   1.543       .  S
C52          C54   1.541       .  S
C52         C643   1.536       .  S
C52          H58   1.104       .  S
C53          H59   1.086       .  S
C53          C54   1.359       .  D
C54         C464   1.473       .  S
C55          H60   1.080       .  S
C55          C56   1.369       .  D
C56         C425   1.507       .  S
C61          C62   1.545       .  S
C61          C65   1.538       .  S
C61         C659   1.539       .  S
C61         C404   1.536       .  S
C62          H69   1.085       .  S
C62          C63   1.366       .  D
C63          C64   1.541       .  S
C63         C377   1.491       .  S
C64          C66   1.540       .  S
C64         C660   1.541       .  S
C64         H662   1.110       .  S
C65         H663   1.086       .  S
C65          C66   1.365       .  D
C66         C368   1.489       .  S
C67         C653   1.538       .  S
C67          H72   1.083       .  S
C67          C68   1.362       .  D
C68         C656   1.540   1_554  S
C68         C392   1.483       .  S
H70         C656   1.110       .  S
H71         C657   1.086       .  S
In73         O75   2.227       .  S
In73         O76   2.255       .  S
In73         O84   2.231       .  S
In73         O78   2.246       .  S
In73         O80   2.262       .  S
In73         O81   2.252       .  S
In73         O82   2.213       .  S
In73         O85   2.220       .  S
C74          O80   1.265       .  A
C74          O82   1.260       .  A
C74         C202   1.462       .  S
O75          C83   1.260       .  A
O76          C83   1.264       .  A
C77          O84   1.262       .  A
C77          O78   1.263       .  A
C77         C488   1.488       .  S
C79          O81   1.265       .  A
C79          O85   1.260       .  A
C79          C96   1.461       .  S
C83         C118   1.464       .  S
In86         O88   2.222       .  S
In86         O89   2.248       .  S
In86         O97   2.233       .  S
In86         O91   2.265       .  S
In86         O93   2.276       .  S
In86         O94   2.251       .  S
In86         O95   2.218       .  S
In86         O98   2.226       .  S
C87          O93   1.267       .  A
C87          O95   1.259       .  A
C87         C215   1.468       .  S
O88          C96   1.262       .  A
O89          C96   1.264       .  A
C90          O97   1.260       .  A
C90          O91   1.265       .  A
C90         C428   1.478       .  S
C92          O94   1.263       .  A
C92          O98   1.261       .  A
C92         C148   1.462       .  S
In99        O101   2.217       .  S
In99        O102   2.250       .  S
In99        O110   2.238       .  S
In99        O104   2.252       .  S
In99        O106   2.277       .  S
In99        O107   2.248       .  S
In99        O108   2.223       .  S
In99        O111   2.216       .  S
C100        O106   1.267       .  A
C100        O108   1.259       .  A
C100        C228   1.470       .  S
O101        C109   1.260       .  A
O102        C109   1.264       .  A
C103        O110   1.261       .  A
C103        O104   1.266       .  A
C103        C380   1.488       .  S
C105        O107   1.264       .  A
C105        O111   1.261       .  A
C105        C122   1.459       .  S
C109        C170   1.459       .  S
In112       O114   2.221       .  S
In112       O115   2.256       .  S
In112       O123   2.232       .  S
In112       O117   2.252       .  S
In112       O119   2.272       .  S
In112       O120   2.250       .  S
In112       O121   2.218       .  S
In112       O124   2.225       .  S
C113        O119   1.265       .  A
C113        O121   1.259       .  A
C113        C241   1.466       .  S
O114        C122   1.259       .  A
O115        C122   1.263       .  A
C116        O123   1.261       .  A
C116        O117   1.263       .  A
C116        C353   1.490       .  S
C118        O120   1.264       .  A
C118        O124   1.262       .  A
In125       O127   2.226       .  S
In125       O128   2.257       .  S
In125       O136   2.230       .  S
In125       O130   2.258       .  S
In125       O132   2.264       .  S
In125       O133   2.254       .  S
In125       O134   2.208       .  S
In125       O137   2.228       .  S
C126        O132   1.266       .  A
C126        O134   1.259       .  A
C126        C254   1.461       .  S
O127        C135   1.262       .  A
O128        C135   1.265       .  A
C129        O136   1.260       .  A
C129        O130   1.263       .  A
C129        C452   1.470       .  S
C131        O133   1.263       .  A
C131        O137   1.259       .  A
C131        C161   1.463       .  S
C135        C144   1.465       .  S
In138       O140   2.225       .  S
In138       O141   2.254       .  S
In138       O149   2.223       .  S
In138       O143   2.249       .  S
In138       O145   2.271       .  S
In138       O146   2.257       .  S
In138       O147   2.215       .  S
In138       O150   2.223       .  S
C139        O145   1.266       .  A
C139        O147   1.260       .  A
C139        C267   1.466       .  S
O140        C148   1.260       .  A
O141        C148   1.264       .  A
C142        O149   1.260       .  A
C142        O143   1.265       .  A
C142        C572   1.469       .  S
C144        O146   1.266       .  A
C144        O150   1.262       .  A
In151       O153   2.230       .  S
In151       O154   2.250       .  S
In151       O162   2.234       .  S
In151       O156   2.256       .  S
In151       O158   2.273       .  S
In151       O159   2.250       .  S
In151       O160   2.219       .  S
In151       O163   2.222       .  S
C152        O158   1.266       .  A
C152        O160   1.260       .  A
C152        C280   1.467       .  S
O153        C161   1.262       .  A
O154        C161   1.263       .  A
C155        O162   1.260       .  A
C155        O156   1.266       .  A
C155        C341   1.487       .  S
C157        O159   1.264       .  A
C157        O163   1.260       .  A
C157        C174   1.461       .  S
In164       O166   2.221       .  S
In164       O167   2.249       .  S
In164       O175   2.217       .  S
In164       O169   2.248       .  S
In164       O171   2.268       .  S
In164       O172   2.252       .  S
In164       O173   2.212       .  S
In164       O176   2.218       .  S
C165        O171   1.265       .  A
C165        O173   1.259       .  A
C165        C293   1.463       .  S
O166        C174   1.262       .  A
O167        C174   1.265       .  A
C168        O175   1.261       .  A
C168        O169   1.265       .  A
C168        C536   1.470       .  S
C170        O172   1.263       .  A
C170        O176   1.259       .  A
C177        C183   1.546       .  S
C177        C181   1.539       .  S
C177        C770   1.547       .  S
C177        C317   1.541       .  S
C178        C769   1.547       .  S
C178        H185   1.081       .  S
C178        C179   1.370       .  D
C179        C772   1.538   1_554  S
C179        C329   1.498       .  S
C180        C184   1.536       .  S
C180        C182   1.537       .  S
C180        C771   1.537       .  S
C180        H186   1.110       .  S
C181        H187   1.086       .  S
C181        C182   1.365       .  D
C182        C365   1.484       .  S
C183        H188   1.086       .  S
C183        C184   1.363       .  D
C184        C356   1.485       .  S
C189        C190   1.542       .  S
C189        C193   1.533       .  S
C189        C787   1.553       .  S
C189        C320   1.543       .  S
C190        H197   1.085       .  S
C190        C191   1.363       .  D
C191        C192   1.533       .  S
C191        C344   1.486       .  S
C192        C194   1.539       .  S
C192        C788   1.544       .  S
C192        H198   1.105       .  S
C193        H791   1.086       .  S
C193        C194   1.360       .  D
C194        C512   1.474       .  S
C195        C781   1.552   1_554  S
C195        H200   1.083       .  S
C195        C196   1.377       .  D
C196        C784   1.545   1_554  S
C196        C308   1.511       .  S
H199        C785   1.086       .  S
In201       O203   2.210       .  S
In201       O204   2.245       .  S
In201       O212   2.230       .  S
In201       O206   2.248       .  S
In201       O208   2.264       .  S
In201       O209   2.243       .  S
In201       O210   2.214       .  S
In201       O213   2.219       .  S
C202        O208   1.265       .  A
C202        O210   1.259       .  A
O203        C211   1.259       .  A
O204        C211   1.263       .  A
C205        O212   1.260       .  A
C205        O206   1.263       .  A
C205        C500   1.465       .  S
C207        O209   1.262       .  A
C207        O213   1.261       .  A
C207        C250   1.457       .  S
C211        C220   1.454       .  S
In214       O216   2.221       .  S
In214       O217   2.251       .  S
In214       O225   2.230       .  S
In214       O219   2.256       .  S
In214       O221   2.271       .  S
In214       O222   2.243       .  S
In214       O223   2.218       .  S
In214       O226   2.206       .  S
C215        O221   1.266       .  A
C215        O223   1.260       .  A
O216        C224   1.260       .  A
O217        C224   1.263       .  A
C218        O225   1.259       .  A
C218        O219   1.265       .  A
C218        C416   1.472       .  S
C220        O222   1.265       .  A
C220        O226   1.261       .  A
C224        C272   1.460       .  S
In227       O229   2.221       .  S
In227       O230   2.258       .  S
In227       O238   2.236       .  S
In227       O232   2.255       .  S
In227       O234   2.277       .  S
In227       O235   2.253       .  S
In227       O236   2.226       .  S
In227       O239   2.233       .  S
C228        O234   1.265       .  A
C228        O236   1.259       .  A
O229        C237   1.259       .  A
O230        C237   1.264       .  A
C231        O238   1.261       .  A
C231        O232   1.265       .  A
C231        C389   1.483       .  S
C233        O235   1.264       .  A
C233        O239   1.262       .  A
C233        C302   1.466       .  S
C237        C246   1.462       .  S
In240       O242   2.216       .  S
In240       O243   2.248       .  S
In240       O251   2.229       .  S
In240       O245   2.248       .  S
In240       O247   2.269       .  S
In240       O248   2.252       .  S
In240       O249   2.216       .  S
In240       O252   2.215       .  S
C241        O247   1.266       .  A
C241        O249   1.260       .  A
O242        C250   1.259       .  A
O243        C250   1.264       .  A
C244        O251   1.260       .  A
C244        O245   1.264       .  A
C244        C332   1.470       .  S
C246        O248   1.266       .  A
C246        O252   1.262       .  A
In253       O255   2.223       .  S
In253       O256   2.247       .  S
In253       O264   2.219       .  S
In253       O258   2.240       .  S
In253       O260   2.263       .  S
In253       O261   2.251       .  S
In253       O262   2.214       .  S
In253       O265   2.214       .  S
C254        O260   1.264       .  A
C254        O262   1.260       .  A
O255        C263   1.261       .  A
O256        C263   1.263       .  A
C257        O264   1.260       .  A
C257        O258   1.265       .  A
C257        C440   1.476       .  S
C259        O261   1.263       .  A
C259        O265   1.259       .  A
C259        C276   1.457       .  S
C263        C285   1.460       .  S
In266       O268   2.213       .  S
In266       O269   2.250       .  S
In266       O277   2.232       .  S
In266       O271   2.247       .  S
In266       O273   2.272       .  S
In266       O274   2.248       .  S
In266       O275   2.215       .  S
In266       O278   2.221       .  S
C267        O273   1.266       .  A
C267        O275   1.259       .  A
O268        C276   1.259       .  A
O269        C276   1.263       .  A
C270        O277   1.262       .  A
C270        O271   1.263       .  A
C270        C584   1.488       .  S
C272        O274   1.264       .  A
C272        O278   1.261       .  A
In279       O281   2.225       .  S
In279       O282   2.254       .  S
In279       O290   2.227       .  S
In279       O284   2.261       .  S
In279       O286   2.272       .  S
In279       O287   2.248       .  S
In279       O288   2.217       .  S
In279       O291   2.222       .  S
C280        O286   1.267       .  A
C280        O288   1.260       .  A
O281        C289   1.262       .  A
O282        C289   1.265       .  A
C283        O290   1.260       .  A
C283        O284   1.265       .  A
C283        C305   1.473       .  S
C285        O287   1.264       .  A
C285        O291   1.260       .  A
C289        C298   1.464       .  S
In292       O294   2.234       .  S
In292       O295   2.254       .  S
In292       O303   2.233       .  S
In292       O297   2.249       .  S
In292       O299   2.269       .  S
In292       O300   2.259       .  S
In292       O301   2.211       .  S
In292       O304   2.225       .  S
C293        O299   1.266       .  A
C293        O301   1.259       .  A
O294        C302   1.261       .  A
O295        C302   1.264       .  A
C296        O303   1.263       .  A
C296        O297   1.263       .  A
C296        C524   1.489       .  S
C298        O300   1.265       .  A
C298        O304   1.260       .  A
C305        C306   1.396       .  A
C305        C310   1.406       .  A
C306        C307   1.402       .  A
C306        H315   1.083       .  S
C307        C308   1.426       .  A
C307        S311   1.805       .  S
C308        C309   1.415       .  A
C309        C310   1.403       .  A
C309        H316   1.082       .  S
C310        S312   1.804       .  S
S311        H314   1.407       .  S
S312        H313   1.406       .  S
C317        C318   1.407       .  A
C317        C914   1.422       .  A
C318        C319   1.398   1_655  A
C318        H327   1.083       .  S
C319        C320   1.423       .  A
C319        S323   1.803       .  S
C320        C913   1.411       .  A
C321        C322   1.403   1_455  A
C321        C912   1.410   1_554  A
C321        H328   1.081       .  S
C322        C909   1.422       .  A
C322        S324   1.803       .  S
S323        H326   1.402       .  S
S324        H325   1.403       .  S
C329        C330   1.410       .  A
C329        C334   1.419       .  A
C330        C331   1.403       .  A
C330        H339   1.083       .  S
C331        C332   1.409       .  A
C331        S335   1.803       .  S
C332        C333   1.397       .  A
C333        C334   1.395       .  A
C333        H340   1.084       .  S
C334        S336   1.796       .  S
S335        H338   1.406       .  S
S336        H337   1.400       .  S
C341        C342   1.404       .  A
C341        C346   1.418       .  A
C342        C343   1.403       .  A
C342        H351   1.082       .  S
C343        C344   1.410       .  A
C343        S347   1.805       .  S
C344        C345   1.401       .  A
C345        C346   1.407       .  A
C345        H352   1.083       .  S
C346        S348   1.808       .  S
S347        H350   1.406       .  S
S348        H349   1.407       .  S
C353        C354   1.408       .  A
C353        C358   1.418       .  A
C354        C355   1.399       .  A
C354        H363   1.084       .  S
C355        C356   1.409       .  A
C355        S359   1.802       .  S
C356        C357   1.404       .  A
C357        C358   1.402       .  A
C357        H364   1.084       .  S
C358        S360   1.800       .  S
S359        H954   1.406       .  S
S360        H361   1.407       .  S
H362        S951   1.406       .  S
C365        C366   1.401       .  A
C365        C962   1.415       .  A
C366        C367   1.400       .  A
C366        H375   1.083       .  S
C367        C368   1.413       .  A
C367        S371   1.802       .  S
C368        C961   1.405       .  A
C369        C370   1.402       .  A
C369        C960   1.405   1_554  A
C369        H376   1.083       .  S
C370        C957   1.418   1_554  A
C370        S372   1.804       .  S
S371        H374   1.407       .  S
S372        H373   1.402       .  S
C377        C378   1.402       .  A
C377        C382   1.417       .  A
C378        C379   1.401       .  A
C378        H387   1.081       .  S
C379        C380   1.417       .  A
C379        S383   1.802       .  S
C380        C381   1.404       .  A
C381        C382   1.404       .  A
C381        H388   1.082       .  S
C382        S384   1.810       .  S
S383        H386   1.408       .  S
S384        H385   1.406       .  S
C389        C390   1.403       .  A
C389        C394   1.416       .  A
C390        C391   1.400       .  A
C390        H399   1.084       .  S
C391        C392   1.414       .  A
C391        S395   1.803       .  S
C392        C393   1.401       .  A
C393        C394   1.402       .  A
C393        H400   1.081       .  S
C394        S396   1.803       .  S
S395        H398   1.404       .  S
S396        H397   1.408       .  S
C401        C406   1.422       .  A
C401        C994   1.408       .  A
C402        C403   1.398   1_565  A
C402        C993   1.408       .  A
C402        H411   1.081       .  S
C403        C996   1.421       .  A
C403        S407   1.803       .  S
C404        C405   1.409       .  A
C404        C995   1.420       .  A
C405        C406   1.399   1_545  A
C405        H412   1.083       .  S
C406        S408   1.807       .  S
S407        H410   1.405       .  S
S408        H409   1.401       .  S
C413        C414   1.409       .  A
C413        C418   1.420       .  A
C414        C415   1.400       .  A
C414        H423   1.083       .  S
C415        C416   1.407       .  A
C415        S419   1.802       .  S
C416        C417   1.400       .  A
C417        C418   1.402       .  A
C417        H424   1.084       .  S
C418        S420   1.805       .  S
S419        H422   1.407       .  S
S420        H421   1.407       .  S
C425        C426   1.408       .  A
C425        C430   1.423       .  A
C426        C427   1.397       .  A
C426        H435   1.076       .  S
C427        C428   1.410       .  A
C427        S431   1.806       .  S
C428        C429   1.402       .  A
C429        C430   1.407       .  A
C429        H436   1.084       .  S
C430        S432   1.803       .  S
S431        H434   1.406       .  S
S432        H433   1.407       .  S
C437        C438   1.399       .  A
C437        C442   1.414       .  A
C438        C439   1.402       .  A
C438        H447   1.083       .  S
C439        C440   1.415       .  A
C439        S443   1.808       .  S
C440        C441   1.402       .  A
C441        C442   1.396       .  A
C441        H448   1.084       .  S
C442        S444   1.803       .  S
S443        H446   1.407       .  S
S444        H445   1.405       .  S
C449        C450   1.405       .  A
C449        C454   1.418       .  A
C450        C451   1.396       .  A
C450        H459   1.084       .  S
C451        C452   1.408       .  A
C451        S455   1.804       .  S
C452        C453   1.401       .  A
C453        C454   1.403       .  A
C453        H460   1.084       .  S
C454        S456   1.804       .  S
S455        H458   1.406       .  S
S456        H457   1.407       .  S
C461        C466   1.410       .  A
C461       C1054   1.404       .  A
C462        C463   1.402       .  A
C462       C1053   1.404   1_554  A
C462        H471   1.084       .  S
C463       C1056   1.415   1_554  A
C463        S467   1.804       .  S
C464        C465   1.395       .  A
C464       C1055   1.415       .  A
C465        C466   1.390       .  A
C465        H472   1.080       .  S
C466        S468   1.795       .  S
S467        H470   1.405       .  S
S468        H469   1.406       .  S
C473        C478   1.419       .  A
C473       C1066   1.408       .  A
C474        C475   1.395   1_655  A
C474       C1065   1.408       .  A
C474        H483   1.080       .  S
C475       C1068   1.418       .  A
C475        S479   1.803       .  S
C476        C477   1.408       .  A
C476       C1067   1.418       .  A
C477        C478   1.398   1_455  A
C477        H484   1.082       .  S
C478        S480   1.813       .  S
S479        H482   1.404       .  S
S480        H481   1.406       .  S
C485        C486   1.407       .  A
C485        C490   1.412       .  A
C486        C487   1.399       .  A
C486        H495   1.083       .  S
C487        C488   1.416       .  A
C487        S491   1.800       .  S
C488        C489   1.407       .  A
C489        C490   1.402       .  A
C489        H496   1.082       .  S
C490        S492   1.807       .  S
S491        H494   1.408       .  S
S492        H493   1.406       .  S
C497        C498   1.401       .  A
C497        C502   1.410       .  A
C498        C499   1.399       .  A
C498        H507   1.085       .  S
C499        C500   1.412       .  A
C499        S503   1.805       .  S
C500        C501   1.401       .  A
C501        C502   1.402       .  A
C501        H508   1.083       .  S
C502        S504   1.806       .  S
S503        H506   1.404       .  S
S504        H505   1.407       .  S
C509        C514   1.414       .  A
C509       C1102   1.399       .  A
C510        C511   1.399       .  A
C510       C1101   1.399   1_554  A
C510        H519   1.084       .  S
C511       C1104   1.413   1_554  A
C511        S515   1.803       .  S
C512        C513   1.399       .  A
C512       C1103   1.413       .  A
C513        C514   1.398       .  A
C513        H520   1.083       .  S
C514        S516   1.805       .  S
S515        H518   1.403       .  S
S516        H517   1.402       .  S
C521        C522   1.404       .  A
C521        C526   1.410       .  A
C522        C523   1.402       .  A
C522        H531   1.084       .  S
C523        C524   1.418       .  A
C523        S527   1.800       .  S
C524        C525   1.407       .  A
C525        C526   1.399       .  A
C525        H532   1.084       .  S
C526        S528   1.801       .  S
S527        H530   1.408       .  S
S528       H1121   1.407   1_554  S
H529       S1120   1.407       .  S
C533        C534   1.415       .  A
C533        C538   1.427       .  A
C534        C535   1.398       .  A
C534        H543   1.082       .  S
C535        C536   1.404       .  A
C535        S539   1.804       .  S
C536        C537   1.397       .  A
C537        C538   1.402       .  A
C537        H544   1.083       .  S
C538        S540   1.807       .  S
S539        H542   1.406       .  S
S540        H541   1.406       .  S
C545        C550   1.413       .  A
C545       C1138   1.400       .  A
C546        C547   1.393       .  A
C546       C1137   1.400       .  A
C546        H555   1.084       .  S
C547       C1140   1.413       .  A
C547        S551   1.797       .  S
C548        C549   1.407       .  A
C548       C1139   1.413       .  A
C549        C550   1.402       .  A
C549        H556   1.084       .  S
C550        S552   1.802       .  S
S551        H554   1.406       .  S
S552        H553   1.407       .  S
C557        C562   1.423       .  A
C557       C1150   1.409       .  A
C558        C559   1.397   1_545  A
C558       C1149   1.408   1_554  A
C558        H567   1.081       .  S
C559       C1152   1.421   1_554  A
C559        S563   1.804       .  S
C560        C561   1.410       .  A
C560       C1151   1.422       .  A
C561        C562   1.398   1_565  A
C561        H568   1.083       .  S
C562        S564   1.808       .  S
S563        H566   1.405       .  S
S564        H565   1.402       .  S
C569        C570   1.409       .  A
C569        C574   1.414       .  A
C570        C571   1.402       .  A
C570        H579   1.084       .  S
C571        C572   1.409       .  A
C571        S575   1.803       .  S
C572        C573   1.398       .  A
C573        C574   1.395       .  A
C573        H580   1.085       .  S
C574        S576   1.794       .  S
S575        H578   1.406       .  S
S576        H577   1.406       .  S
C581        C582   1.406       .  A
C581        C586   1.410       .  A
C582        C583   1.400       .  A
C582        H591   1.084       .  S
C583        C584   1.417       .  A
C583        S587   1.800       .  S
C584        C585   1.407       .  A
C585        C586   1.398       .  A
C585        H592   1.084       .  S
C586        S588   1.802       .  S
S587        H590   1.407       .  S
S588       H1181   1.407       .  S
H589       S1180   1.406       .  S
C593        C594   1.543       .  S
C593       C1152   1.534       .  S
C594        H601   1.086       .  S
C594        C595   1.366       .  D
C595       C1161   1.492       .  S
C596        C600   1.539       .  S
C596        H602   1.108       .  S
C597        H603   1.082       .  S
C598       C1140   1.488       .  S
C599        H604   1.087       .  S
C599        C600   1.362       .  D
C600       C1173   1.488       .  S
C605        C611   1.540       .  S
C605        C609   1.542       .  S
C605       C1149   1.532       .  S
C606        H613   1.087       .  S
C606        C607   1.359       .  D
C607       C1113   1.489       .  S
C608        C612   1.546       .  S
C608        C610   1.541       .  S
C608        H614   1.102   1_556  S
C609        H615   1.085       .  S
C609        C610   1.360       .  D
C610       C1101   1.474       .  S
C611        H616   1.084       .  S
C611        C612   1.374       .  D
C612       C1125   1.507       .  S
C617        C618   1.539   1_554  S
C617        C621   1.548   1_554  S
C617       C1065   1.525       .  S
C618        H625   1.085       .  S
C618        C619   1.366       .  D
C619        C620   1.542       .  S
C619       C1077   1.490       .  S
C620        C622   1.535       .  S
C620        H626   1.110       .  S
C621        C622   1.362       .  D
C622       C1053   1.476       .  S
C623        H628   1.087       .  S
C623        C624   1.359       .  D
C624       C1089   1.475       .  S
C629        C635   1.543   1_554  S
C629        C633   1.547       .  S
C629       C1068   1.526       .  S
C630        H637   1.087       .  S
C630        C631   1.358       .  D
C631       C1029   1.475       .  S
C632        C636   1.539   1_554  S
C632        C634   1.533       .  S
C632        H638   1.111       .  S
C633        H639   1.081   1_554  S
C633        C634   1.367       .  D
C634       C1137   1.480       .  S
C635        H640   1.086       .  S
C635        C636   1.364       .  D
C636       C1041   1.486       .  S
C641        C647   1.544   1_554  S
C641        C645   1.531   1_554  S
C641        C993   1.536       .  S
C642        H649   1.084       .  S
C642        C643   1.369       .  D
C643       C1005   1.499       .  S
C644        C648   1.542   1_554  S
C644        C646   1.540   1_554  S
C644        H650   1.104       .  S
C645        H651   1.086       .  S
C645        C646   1.359       .  D
C646       C1056   1.472       .  S
C647        H652   1.080       .  S
C647        C648   1.369       .  D
C648       C1017   1.506       .  S
C653        C654   1.545   1_554  S
C653        C657   1.538   1_554  S
C653        C996   1.536       .  S
C654        H661   1.085       .  S
C654        C655   1.366       .  D
C655        C656   1.542       .  S
C655        C969   1.491       .  S
C656        C658   1.541       .  S
C657        C658   1.367       .  D
C658        C960   1.492       .  S
C659        H664   1.083       .  S
C659        C660   1.363       .  D
C660        C984   1.484       .  S
In665       O667   2.229       .  S
In665       O668   2.254       .  S
In665       O676   2.230       .  S
In665       O670   2.244       .  S
In665       O672   2.263       .  S
In665       O673   2.254       .  S
In665       O674   2.212       .  S
In665       O677   2.223       .  S
C666        O672   1.265       .  A
C666        O674   1.260       .  A
C666        C794   1.462       .  S
O667        C675   1.260       .  A
O668        C675   1.264       .  A
C669        O676   1.262       .  A
C669        O670   1.263       .  A
C669       C1080   1.487       .  S
C671        O673   1.265       .  A
C671        O677   1.260       .  A
C671        C688   1.462       .  S
C675        C710   1.464       .  S
In678       O680   2.224       .  S
In678       O681   2.251       .  S
In678       O689   2.233       .  S
In678       O683   2.266       .  S
In678       O685   2.277       .  S
In678       O686   2.253       .  S
In678       O687   2.218       .  S
In678       O690   2.227       .  S
C679        O685   1.267       .  A
C679        O687   1.259       .  A
C679        C807   1.468       .  S
O680        C688   1.262       .  A
O681        C688   1.264       .  A
C682        O689   1.260       .  A
C682        O683   1.265       .  A
C682       C1020   1.477       .  S
C684        O686   1.263       .  A
C684        O690   1.261       .  A
C684        C740   1.463       .  S
In691       O693   2.218       .  S
In691       O694   2.251       .  S
In691       O702   2.235       .  S
In691       O696   2.254       .  S
In691       O698   2.275       .  S
In691       O699   2.251       .  S
In691       O700   2.224       .  S
In691       O703   2.219       .  S
C692        O698   1.266       .  A
C692        O700   1.260       .  A
C692        C820   1.470       .  S
O693        C701   1.260       .  A
O694        C701   1.264       .  A
C695        O702   1.261       .  A
C695        O696   1.266       .  A
C695        C972   1.488       .  S
C697        O699   1.264       .  A
C697        O703   1.261       .  A
C697        C714   1.461       .  S
C701        C762   1.459       .  S
In704       O706   2.224       .  S
In704       O707   2.258       .  S
In704       O715   2.229       .  S
In704       O709   2.253       .  S
In704       O711   2.270       .  S
In704       O712   2.249       .  S
In704       O713   2.217       .  S
In704       O716   2.227       .  S
C705        O711   1.265       .  A
C705        O713   1.259       .  A
C705        C833   1.465       .  S
O706        C714   1.259       .  A
O707        C714   1.263       .  A
C708        O715   1.261       .  A
C708        O709   1.263       .  A
C708        C945   1.489       .  S
C710        O712   1.264       .  A
C710        O716   1.262       .  A
In717       O719   2.226       .  S
In717       O720   2.257       .  S
In717       O728   2.231       .  S
In717       O722   2.257       .  S
In717       O724   2.261       .  S
In717       O725   2.253       .  S
In717       O726   2.207       .  S
In717       O729   2.229       .  S
C718        O724   1.266       .  A
C718        O726   1.259       .  A
C718        C846   1.460       .  S
O719        C727   1.261       .  A
O720        C727   1.265       .  A
C721        O728   1.260       .  A
C721        O722   1.263       .  A
C721       C1044   1.470       .  S
C723        O725   1.264       .  A
C723        O729   1.260       .  A
C723        C753   1.463       .  S
C727        C736   1.465       .  S
In730       O732   2.225       .  S
In730       O733   2.256       .  S
In730       O741   2.222       .  S
In730       O735   2.251       .  S
In730       O737   2.269       .  S
In730       O738   2.255       .  S
In730       O739   2.216       .  S
In730       O742   2.223       .  S
C731        O737   1.266       .  A
C731        O739   1.260       .  A
C731        C859   1.466       .  S
O732        C740   1.260       .  A
O733        C740   1.264       .  A
C734        O741   1.260       .  A
C734        O735   1.265       .  A
C734       C1164   1.469       .  S
C736        O738   1.266       .  A
C736        O742   1.262       .  A
In743       O745   2.231       .  S
In743       O746   2.249       .  S
In743       O754   2.230       .  S
In743       O748   2.258       .  S
In743       O750   2.271       .  S
In743       O751   2.251       .  S
In743       O752   2.218       .  S
In743       O755   2.222       .  S
C744        O750   1.266       .  A
C744        O752   1.260       .  A
C744        C872   1.466       .  S
O745        C753   1.262       .  A
O746        C753   1.263       .  A
C747        O754   1.260       .  A
C747        O748   1.266       .  A
C747        C933   1.487       .  S
C749        O751   1.264       .  A
C749        O755   1.260       .  A
C749        C766   1.461       .  S
In756       O758   2.221       .  S
In756       O759   2.249       .  S
In756       O767   2.215       .  S
In756       O761   2.245       .  S
In756       O763   2.269       .  S
In756       O764   2.253       .  S
In756       O765   2.210       .  S
In756       O768   2.218       .  S
C757        O763   1.265       .  A
C757        O765   1.259       .  A
C757        C885   1.463       .  S
O758        C766   1.262       .  A
O759        C766   1.265       .  A
C760        O767   1.260       .  A
C760        O761   1.265       .  A
C760       C1128   1.468       .  S
C762        O764   1.263       .  A
C762        O768   1.259       .  A
C769        C775   1.544   1_554  S
C769        C773   1.539   1_554  S
C769        C909   1.540       .  S
C770        H777   1.082       .  S
C770        C771   1.370       .  D
C771        C921   1.493       .  S
C772        C776   1.537       .  S
C772        C774   1.540       .  S
C772        H778   1.109       .  S
C773        H779   1.085       .  S
C773        C774   1.366       .  D
C774        C957   1.489       .  S
C775        H780   1.086       .  S
C775        C776   1.362       .  D
C776        C948   1.485       .  S
C781        C782   1.541       .  S
C781        C785   1.534       .  S
C781        C912   1.541       .  S
C782        H789   1.085       .  S
C782        C783   1.362       .  D
C783        C784   1.534       .  S
C783        C936   1.486       .  S
C784        C786   1.539       .  S
C784        H790   1.104       .  S
C785        C786   1.360       .  D
C786       C1104   1.474       .  S
C787        H792   1.083       .  S
C787        C788   1.377       .  D
C788        C900   1.511       .  S
In793       O795   2.210       .  S
In793       O796   2.250       .  S
In793       O804   2.229       .  S
In793       O798   2.247       .  S
In793       O800   2.266       .  S
In793       O801   2.243       .  S
In793       O802   2.214       .  S
In793       O805   2.221       .  S
C794        O800   1.265       .  A
C794        O802   1.259       .  A
O795        C803   1.259       .  A
O796        C803   1.263       .  A
C797        O804   1.260       .  A
C797        O798   1.263       .  A
C797       C1092   1.465       .  S
C799        O801   1.262       .  A
C799        O805   1.261       .  A
C799        C842   1.458       .  S
C803        C812   1.456       .  S
In806       O808   2.221       .  S
In806       O809   2.253       .  S
In806       O817   2.230       .  S
In806       O811   2.259       .  S
In806       O813   2.274       .  S
In806       O814   2.248       .  S
In806       O815   2.219       .  S
In806       O818   2.208       .  S
C807        O813   1.266       .  A
C807        O815   1.260       .  A
O808        C816   1.260       .  A
O809        C816   1.263       .  A
C810        O817   1.259       .  A
C810        O811   1.265       .  A
C810       C1008   1.473       .  S
C812        O814   1.265       .  A
C812        O818   1.261       .  A
C816        C864   1.460       .  S
In819       O821   2.222       .  S
In819       O822   2.258       .  S
In819       O830   2.237       .  S
In819       O824   2.251       .  S
In819       O826   2.275       .  S
In819       O827   2.251       .  S
In819       O828   2.226       .  S
In819       O831   2.230       .  S
C820        O826   1.265       .  A
C820        O828   1.260       .  A
O821        C829   1.260       .  A
O822        C829   1.264       .  A
C823        O830   1.261       .  A
C823        O824   1.265       .  A
C823        C981   1.482       .  S
C825        O827   1.264       .  A
C825        O831   1.262       .  A
C825        C894   1.465       .  S
C829        C838   1.462       .  S
In832       O834   2.218       .  S
In832       O835   2.248       .  S
In832       O843   2.226       .  S
In832       O837   2.247       .  S
In832       O839   2.268       .  S
In832       O840   2.251       .  S
In832       O841   2.216       .  S
In832       O844   2.217       .  S
C833        O839   1.266       .  A
C833        O841   1.259       .  A
O834        C842   1.259       .  A
O835        C842   1.264       .  A
C836        O843   1.260       .  A
C836        O837   1.264       .  A
C836        C924   1.468       .  S
C838        O840   1.266       .  A
C838        O844   1.262       .  A
In845       O847   2.222       .  S
In845       O848   2.246       .  S
In845       O856   2.215       .  S
In845       O850   2.240       .  S
In845       O852   2.260       .  S
In845       O853   2.250       .  S
In845       O854   2.213       .  S
In845       O857   2.214       .  S
C846        O852   1.264       .  A
C846        O854   1.260       .  A
O847        C855   1.261       .  A
O848        C855   1.263       .  A
C849        O856   1.259       .  A
C849        O850   1.264       .  A
C849       C1032   1.474       .  S
C851        O853   1.263       .  A
C851        O857   1.259       .  A
C851        C868   1.457       .  S
C855        C877   1.459       .  S
In858       O860   2.213       .  S
In858       O861   2.250       .  S
In858       O869   2.230       .  S
In858       O863   2.248       .  S
In858       O865   2.269       .  S
In858       O866   2.250       .  S
In858       O867   2.217       .  S
In858       O870   2.220       .  S
C859        O865   1.266       .  A
C859        O867   1.259       .  A
O860        C868   1.259       .  A
O861        C868   1.264       .  A
C862        O869   1.262       .  A
C862        O863   1.263       .  A
C862       C1176   1.487       .  S
C864        O866   1.264       .  A
C864        O870   1.261       .  A
In871       O873   2.224       .  S
In871       O874   2.253       .  S
In871       O882   2.229       .  S
In871       O876   2.258       .  S
In871       O878   2.267       .  S
In871       O879   2.247       .  S
In871       O880   2.215       .  S
In871       O883   2.220       .  S
C872        O878   1.267       .  A
C872        O880   1.260       .  A
O873        C881   1.262       .  A
O874        C881   1.265       .  A
C875        O882   1.260       .  A
C875        O876   1.265       .  A
C875        C897   1.473       .  S
C877        O879   1.264       .  A
C877        O883   1.260       .  A
C881        C890   1.463       .  S
In884       O886   2.234       .  S
In884       O887   2.252       .  S
In884       O895   2.236       .  S
In884       O889   2.251       .  S
In884       O891   2.271       .  S
In884       O892   2.257       .  S
In884       O893   2.210       .  S
In884       O896   2.224       .  S
C885        O891   1.266       .  A
C885        O893   1.258       .  A
O886        C894   1.261       .  A
O887        C894   1.264       .  A
C888        O895   1.262       .  A
C888        O889   1.263       .  A
C888       C1116   1.490       .  S
C890        O892   1.264       .  A
C890        O896   1.260       .  A
C897        C898   1.396       .  A
C897        C902   1.407       .  A
C898        C899   1.402       .  A
C898        H907   1.084       .  S
C899        C900   1.426       .  A
C899        S903   1.804       .  S
C900        C901   1.414       .  A
C901        C902   1.403       .  A
C901        H908   1.082       .  S
C902        S904   1.804       .  S
S903        H906   1.407       .  S
S904        H905   1.406       .  S
C909        C910   1.407   1_554  A
C910        C911   1.398   1_655  A
C910        H919   1.083       .  S
C911        C912   1.423       .  A
C911        S915   1.803       .  S
C913        C914   1.405   1_455  A
C913        H920   1.081       .  S
C914        S916   1.803       .  S
S915        H918   1.402       .  S
S916        H917   1.404       .  S
C921        C922   1.408       .  A
C921        C926   1.417       .  A
C922        C923   1.403       .  A
C922        H931   1.083       .  S
C923        C924   1.409       .  A
C923        S927   1.803       .  S
C924        C925   1.396       .  A
C925        C926   1.397       .  A
C925        H932   1.084       .  S
C926        S928   1.797       .  S
S927        H930   1.406       .  S
S928        H929   1.408       .  S
C933        C934   1.404       .  A
C933        C938   1.418       .  A
C934        C935   1.404       .  A
C934        H943   1.082       .  S
C935        C936   1.410       .  A
C935        S939   1.805       .  S
C936        C937   1.400       .  A
C937        C938   1.406       .  A
C937        H944   1.083       .  S
C938        S940   1.809       .  S
S939        H942   1.406       .  S
S940        H941   1.407       .  S
C945        C946   1.408       .  A
C945        C950   1.418       .  A
C946        C947   1.399       .  A
C946        H955   1.084       .  S
C947        C948   1.409       .  A
C947        S951   1.802       .  S
C948        C949   1.404       .  A
C949        C950   1.402       .  A
C949        H956   1.084       .  S
C950        S952   1.800       .  S
S952        H953   1.407       .  S
C957        C958   1.402       .  A
C958        C959   1.401       .  A
C958        H967   1.083       .  S
C959        C960   1.414       .  A
C959        S963   1.804       .  S
C961        C962   1.401       .  A
C961        H968   1.083       .  S
C962        S964   1.803       .  S
S963        H966   1.406       .  S
S964        H965   1.406       .  S
C969        C970   1.402       .  A
C969        C974   1.417       .  A
C970        C971   1.400       .  A
C970        H979   1.081       .  S
C971        C972   1.417       .  A
C971        S975   1.802       .  S
C972        C973   1.404       .  A
C973        C974   1.404       .  A
C973        H980   1.082       .  S
C974        S976   1.809       .  S
S975        H978   1.408       .  S
S976        H977   1.406       .  S
C981        C982   1.402       .  A
C981        C986   1.416       .  A
C982        C983   1.399       .  A
C982        H991   1.084       .  S
C983        C984   1.414       .  A
C983        S987   1.802       .  S
C984        C985   1.401       .  A
C985        C986   1.402       .  A
C985        H992   1.081       .  S
C986        S988   1.803       .  S
S987        H990   1.402       .  S
S988        H989   1.408       .  S
C993        C998   1.422   1_554  A
C994        C995   1.399   1_565  A
C994       H1003   1.081       .  S
C995        S999   1.803       .  S
C996        C997   1.408   1_554  A
C997        C998   1.399   1_545  A
C997       H1004   1.083       .  S
C998       S1000   1.807       .  S
S999       H1002   1.405       .  S
S1000      H1001   1.401       .  S
C1005      C1006   1.410       .  A
C1005      C1010   1.421       .  A
C1006      C1007   1.401       .  A
C1006      H1015   1.083       .  S
C1007      C1008   1.407       .  A
C1007      S1011   1.802       .  S
C1008      C1009   1.399       .  A
C1009      C1010   1.402       .  A
C1009      H1016   1.084       .  S
C1010      S1012   1.805       .  S
S1011      H1014   1.407       .  S
S1012      H1013   1.407       .  S
C1017      C1018   1.408       .  A
C1017      C1022   1.423       .  A
C1018      C1019   1.397       .  A
C1018      H1027   1.077       .  S
C1019      C1020   1.409       .  A
C1019      S1023   1.806       .  S
C1020      C1021   1.402       .  A
C1021      C1022   1.406       .  A
C1021      H1028   1.084       .  S
C1022      S1024   1.803       .  S
S1023      H1026   1.406       .  S
S1024      H1025   1.407       .  S
C1029      C1030   1.399       .  A
C1029      C1034   1.414       .  A
C1030      C1031   1.401       .  A
C1030      H1039   1.083       .  S
C1031      C1032   1.415       .  A
C1031      S1035   1.809       .  S
C1032      C1033   1.402       .  A
C1033      C1034   1.395       .  A
C1033      H1040   1.084       .  S
C1034      S1036   1.803       .  S
S1035      H1038   1.407       .  S
S1036      H1037   1.405       .  S
C1041      C1042   1.404       .  A
C1041      C1046   1.418       .  A
C1042      C1043   1.396       .  A
C1042      H1051   1.084       .  S
C1043      C1044   1.408       .  A
C1043      S1047   1.804       .  S
C1044      C1045   1.401       .  A
C1045      C1046   1.403       .  A
C1045      H1052   1.084       .  S
C1046      S1048   1.804       .  S
S1047      H1050   1.406       .  S
S1048      H1049   1.407       .  S
C1053      C1058   1.410       .  A
C1054      C1055   1.403       .  A
C1054      H1063   1.084       .  S
C1055      S1059   1.804       .  S
C1056      C1057   1.395       .  A
C1057      C1058   1.390       .  A
C1057      H1064   1.081       .  S
C1058      S1060   1.796       .  S
S1059      H1062   1.405       .  S
S1060      H1061   1.406       .  S
C1065      C1070   1.419   1_554  A
C1066      C1067   1.395   1_655  A
C1066      H1075   1.079       .  S
C1067      S1071   1.804       .  S
C1068      C1069   1.408   1_554  A
C1069      C1070   1.397   1_455  A
C1069      H1076   1.082       .  S
C1070      S1072   1.813       .  S
S1071      H1074   1.404       .  S
S1072      H1073   1.406       .  S
C1077      C1078   1.406       .  A
C1077      C1082   1.411       .  A
C1078      C1079   1.398       .  A
C1078      H1087   1.083       .  S
C1079      C1080   1.415       .  A
C1079      S1083   1.800       .  S
C1080      C1081   1.407       .  A
C1081      C1082   1.402       .  A
C1081      H1088   1.082       .  S
C1082      S1084   1.807       .  S
S1083      H1086   1.408       .  S
S1084      H1085   1.406       .  S
C1089      C1090   1.402       .  A
C1089      C1094   1.410       .  A
C1090      C1091   1.400       .  A
C1090      H1099   1.085       .  S
C1091      C1092   1.413       .  A
C1091      S1095   1.807       .  S
C1092      C1093   1.400       .  A
C1093      C1094   1.401       .  A
C1093      H1100   1.083       .  S
C1094      S1096   1.807       .  S
S1095      H1098   1.403       .  S
S1096      H1097   1.407       .  S
C1101      C1106   1.414       .  A
C1102      C1103   1.399       .  A
C1102      H1111   1.084       .  S
C1103      S1107   1.804       .  S
C1104      C1105   1.399       .  A
C1105      C1106   1.398       .  A
C1105      H1112   1.083       .  S
C1106      S1108   1.805       .  S
S1107      H1110   1.402       .  S
S1108      H1109   1.402       .  S
C1113      C1114   1.404       .  A
C1113      C1118   1.411       .  A
C1114      C1115   1.403       .  A
C1114      H1123   1.084       .  S
C1115      C1116   1.418       .  A
C1115      S1119   1.800       .  S
C1116      C1117   1.407       .  A
C1117      C1118   1.400       .  A
C1117      H1124   1.084       .  S
C1118      S1120   1.801       .  S
S1119      H1122   1.408       .  S
C1125      C1126   1.415       .  A
C1125      C1130   1.426       .  A
C1126      C1127   1.398       .  A
C1126      H1135   1.082       .  S
C1127      C1128   1.404       .  A
C1127      S1131   1.804       .  S
C1128      C1129   1.397       .  A
C1129      C1130   1.401       .  A
C1129      H1136   1.083       .  S
C1130      S1132   1.807       .  S
S1131      H1134   1.406       .  S
S1132      H1133   1.406       .  S
C1137      C1142   1.413   1_554  A
C1138      C1139   1.393       .  A
C1138      H1147   1.084       .  S
C1139      S1143   1.797       .  S
C1140      C1141   1.407   1_554  A
C1141      C1142   1.402       .  A
C1141      H1148   1.084       .  S
C1142      S1144   1.802       .  S
S1143      H1146   1.406       .  S
S1144      H1145   1.407       .  S
C1149      C1154   1.422       .  A
C1150      C1151   1.397   1_545  A
C1150      H1159   1.081       .  S
C1151      S1155   1.804       .  S
C1152      C1153   1.410       .  A
C1153      C1154   1.398   1_565  A
C1153      H1160   1.083       .  S
C1154      S1156   1.808       .  S
S1155      H1158   1.406       .  S
S1156      H1157   1.402       .  S
C1161      C1162   1.409       .  A
C1161      C1166   1.415       .  A
C1162      C1163   1.402       .  A
C1162      H1171   1.084       .  S
C1163      C1164   1.409       .  A
C1163      S1167   1.803       .  S
C1164      C1165   1.399       .  A
C1165      C1166   1.395       .  A
C1165      H1172   1.085       .  S
C1166      S1168   1.794       .  S
S1167      H1170   1.406       .  S
S1168      H1169   1.405       .  S
C1173      C1174   1.406       .  A
C1173      C1178   1.411       .  A
C1174      C1175   1.401       .  A
C1174      H1183   1.084       .  S
C1175      C1176   1.417       .  A
C1175      S1179   1.800       .  S
C1176      C1177   1.407       .  A
C1177      C1178   1.398       .  A
C1177      H1184   1.084       .  S
C1178      S1180   1.801       .  S
S1179      H1182   1.407       .  S
