geometry optimzed in LAMMPS
_audit_creation_date              2020-11-30 
_audit_creation_method            'lammps2cif' 
_symmetry_space_group_name_H-M    'P1' 
_symmetry_Int_Tables_number       1 
_symmetry_cell_setting            triclinic 
loop_ 
_symmetry_equiv_pos_as_xyz 
  x,y,z 
_cell_length_a                    30.67052955 
_cell_length_b                    31.341689440356255 
_cell_length_c                    28.43808635986895 
_cell_angle_alpha                 89.8274975234954 
_cell_angle_beta                  90.13061997029445 
_cell_angle_gamma                 118.27121033020572 
loop_ 
_atom_site_label 
_atom_site_type_symbol 
_atom_site_fract_x 
_atom_site_fract_y 
_atom_site_fract_z 
_atom_site_charge 
O1          O  0.47518315  0.43322070  0.04993979    -0.74400
O2          O  0.56813724  0.52084755  0.44798297    -0.75400
O3          O  0.56692335  0.52084996  0.05079152    -0.64000
O4          O  0.47512281  0.43312466  0.44771064    -0.72400
O5          O  0.43709499  0.47814670  0.44860106    -0.72000
O6          O  0.52423507  0.56146698  0.05092043    -0.63200
O7          O  0.52774943  0.56362397  0.45062576    -0.75700
O8          O  0.43367997  0.47512359  0.04788424    -0.74500
Cu9        Cu  0.52385942  0.47515485  0.49830393     1.04600
Cu10       Cu  0.47920739  0.52148026  0.99999330     1.04300
C11         C  0.43946966  0.44009209  0.06408019     0.91800
C12         C  0.56232422  0.55655095  0.43365400     0.90900
C13         C  0.55902235  0.55447535  0.06750198     0.83100
C14         C  0.44140801  0.44259196  0.43201840     0.89400
O15         O  0.03359561  0.57600546  0.45475178    -0.74400
O16         O  0.02632420  0.47665126  0.05331421    -0.75400
O17         O  0.02548221  0.48210568  0.45214077    -0.64000
O18         O  0.03348334  0.57005565  0.05337298    -0.72400
O19         O  0.95163435  0.53760178  0.05329161    -0.72000
O20         O  0.94369817  0.45017729  0.45186293    -0.63200
O21         O  0.94448664  0.44424670  0.05297005    -0.75700
O22         O  0.95183151  0.54410916  0.45453156    -0.74500
Cu23       Cu  0.03306707  0.52500655  0.00351728     1.04600
Cu24       Cu  0.94550914  0.49009471  0.00334117     1.04300
C25         C  0.99415882  0.57528587  0.43900805     0.93900
C26         C  0.98403642  0.44550935  0.06897468     0.90900
C27         C  0.98329115  0.45155080  0.43589576     0.83100
C28         C  0.99382547  0.56862015  0.06915483     0.89400
O29         O  0.45482538  0.03327308  0.45341343    -0.74400
O30         O  0.54928795  0.02333762  0.04319639    -0.75400
O31         O  0.54043406  0.02338889  0.44635822    -0.64000
O32         O  0.46255314  0.03344609  0.05302783    -0.72400
O33         O  0.41461954  0.95387072  0.05153705    -0.72000
O34         O  0.49741947  0.94324388  0.44729568    -0.63200
O35         O  0.50225905  0.94348596  0.04536664    -0.75700
O36         O  0.40944639  0.95333589  0.45200094    -0.74500
Cu37       Cu  0.50280690  0.03134569  0.49930275     1.04600
Cu38       Cu  0.45446588  0.94686407  0.99815810     1.04300
C39         C  0.41810786  0.99525104  0.43727130     0.91800
C40         C  0.54089774  0.98178447  0.05842123     0.90900
C41         C  0.53178271  0.98235192  0.42965480     0.83100
C42         C  0.42569859  0.99533567  0.06908180     0.89400
C43         C  0.04795572  0.78688999  0.24864371     0.85000
C44         C  0.04686173  0.75845618  0.29285992    -0.55200
C45         C  0.00867657  0.71217939  0.29442874     0.08000
C46         C  0.97414082  0.69860866  0.25127053     0.18900
C47         C  0.04696429  0.75488382  0.20745492    -0.55900
C48         C  0.00913299  0.70847025  0.20906933     0.08100
C49         C  0.99654513  0.78418472  0.24637107    -0.55400
C50         C  0.95774987  0.73802120  0.24761077     0.08600
H51         H  0.07477768  0.77368897  0.32024359     0.13200
H52         H  0.94307257  0.66109274  0.25234299    -0.01100
H53         H  0.07358168  0.76802779  0.17891952     0.13500
H54         H  0.99099749  0.81572821  0.24255750     0.13300
C55         C  0.93074072  0.23249477  0.25750471     0.85000
C56         C  0.93079803  0.26400912  0.29863969    -0.55200
C57         C  0.96864466  0.31050654  0.29755345     0.08000
C58         C  0.00379193  0.32104921  0.25543337     0.18900
C59         C  0.93178608  0.26117260  0.21326207    -0.55900
C60         C  0.96941926  0.30776705  0.21225511     0.08100
C61         C  0.98236611  0.23577914  0.25897987    -0.55400
C62         C  0.02049960  0.28190065  0.25812090     0.08600
H63         H  0.90277994  0.25053737  0.32599917     0.13200
H64         H  0.03469751  0.35863737  0.25481240    -0.01100
H65         H  0.90425658  0.24587661  0.18555818     0.13500
H66         H  0.98955501  0.20516941  0.25945065     0.13300
C67         C  0.21846267  0.30090479  0.24979144     0.85000
C68         C  0.25165390  0.32725453  0.29152537    -0.55200
C69         C  0.29666498  0.32829477  0.29127962     0.08000
C70         C  0.30392651  0.30135351  0.24927215     0.18900
C71         C  0.25040650  0.32542088  0.20628811    -0.55900
C72         C  0.29542521  0.32596402  0.20547364     0.08100
C73         C  0.21452285  0.25024995  0.25023809    -0.55400
C74         C  0.25892811  0.25005576  0.25061627     0.08600
H75         H  0.24067475  0.34469425  0.31853710     0.13200
H76         H  0.33992445  0.30122383  0.25014386    -0.01100
H77         H  0.23883429  0.34164688  0.17886270     0.13500
H78         H  0.17929238  0.21724606  0.24965424     0.13300
C79         C  0.26842551  0.06796875  0.24762476     0.85000
C80         C  0.29508705  0.06369201  0.29149213    -0.55200
C81         C  0.29968075  0.02244672  0.29351002     0.08000
C82         C  0.27643317  0.98854849  0.25127306     0.18900
C83         C  0.29656927  0.06142007  0.20600950    -0.55900
C84         C  0.30207435  0.02070964  0.20825935     0.08100
C85         C  0.21848016  0.02129228  0.24712585    -0.55400
C86         C  0.22215261  0.97938332  0.24949137     0.08600
H87         H  0.30993183  0.09163095  0.31830108     0.13200
H88         H  0.28106066  0.95560711  0.25329603    -0.01100
H89         H  0.31103742  0.08660852  0.17683091     0.13500
H90         H  0.18336546  0.02157513  0.24406251     0.13300
C91         C  0.75285922  0.04175816  0.25218330     0.85000
C92         C  0.72380518  0.03723083  0.20674836    -0.55200
C93         C  0.67932876  0.99562343  0.20313851     0.08000
C94         C  0.66845137  0.96200589  0.24642472     0.18900
C95         C  0.71678649  0.03534967  0.29171517    -0.55900
C96         C  0.67221435  0.99437320  0.28873661     0.08100
C97         C  0.75782595  0.99538963  0.25373098    -0.55400
C98         C  0.71411514  0.95356224  0.24998821     0.08600
H99         H  0.73720418  0.06612568  0.18090080     0.13200
H100        H  0.63294582  0.92811598  0.24476018    -0.01100
H101        H  0.72538383  0.06226732  0.31912401     0.13500
H102        H  0.79250368  0.99466488  0.25741088     0.13300
C103        C  0.71594040  0.76812332  0.24858018     0.85000
C104        C  0.68319417  0.73404189  0.21007866    -0.55200
C105        C  0.68014785  0.68910818  0.21063336     0.08000
C106        C  0.71071691  0.68224729  0.25025975     0.18900
C107        C  0.69574249  0.74039213  0.29463136    -0.55900
C108        C  0.69090903  0.69473306  0.29525862     0.08100
C109        C  0.76610738  0.76906805  0.24288510    -0.55400
C110        C  0.76381664  0.72443155  0.24345349     0.08600
H111        H  0.66388409  0.74480304  0.18447658     0.13200
H112        H  0.70816605  0.64572242  0.25077895    -0.01100
H113        H  0.68347765  0.75476928  0.32342407     0.13500
H114        H  0.80117577  0.80197122  0.24073284     0.13300
C115        C  0.75329610  0.90209035  0.22780523    -0.14800
C116        C  0.71278854  0.90557403  0.24690773     0.07400
C117        C  0.67202162  0.86328370  0.26319129    -0.14800
C118        C  0.67295604  0.81909390  0.26253316    -0.14800
C119        C  0.71532864  0.81643413  0.24714256     0.07400
C120        C  0.75468575  0.85833997  0.22808716    -0.14800
H121        H  0.78415452  0.93318776  0.21210649     0.11300
H122        H  0.63989169  0.86433073  0.27750188     0.11300
H123        H  0.64080656  0.78699981  0.27512978     0.11300
H124        H  0.78633322  0.85778735  0.21221214     0.11300
C125        C  0.30267217  0.15762204  0.22596453    -0.14800
C126        C  0.26555553  0.11534031  0.24746676     0.07400
C127        C  0.22882909  0.11941127  0.27365457    -0.14800
C128        C  0.22694117  0.16310528  0.27505118    -0.14800
C129        C  0.26239808  0.20430225  0.25116170     0.07400
C130        C  0.30067246  0.20123498  0.22723810    -0.14800
H131        H  0.33398316  0.15772971  0.20856540     0.11300
H132        H  0.20154553  0.08882658  0.29333531     0.11300
H133        H  0.19794380  0.16473431  0.29533804     0.11300
H134        H  0.32884214  0.23236187  0.20886427     0.11300
C135        C  0.10741845  0.32460908  0.22780472    -0.14800
C136        C  0.07262000  0.29164709  0.25917453     0.07400
C137        C  0.08681519  0.26510971  0.28959988    -0.14800
C138        C  0.13424553  0.26977002  0.28712201    -0.14800
C139        C  0.16829808  0.29987355  0.25314115     0.07400
C140        C  0.15480321  0.32882242  0.22474065    -0.14800
H141        H  0.09747850  0.34583142  0.20434422     0.11300
H142        H  0.06089019  0.24021400  0.31496533     0.11300
H143        H  0.14393166  0.24861761  0.31104878     0.11300
H144        H  0.18018628  0.35503327  0.20021713     0.11300
C145        C  0.83840606  0.17833604  0.25431553    -0.14800
C146        C  0.88586661  0.18225632  0.25851143     0.07400
C147        C  0.88951308  0.13935322  0.26336666    -0.14800
C148        C  0.84743599  0.09417769  0.26186864    -0.14800
C149        C  0.80007729  0.09016746  0.25561820     0.07400
C150        C  0.79629271  0.13312741  0.25279776    -0.14800
H151        H  0.83402817  0.21059191  0.25145731     0.11300
H152        H  0.92439216  0.13954245  0.26856784     0.11300
H153        H  0.85327254  0.06306231  0.26585132     0.11300
H154        H  0.76042286  0.13158088  0.24886959     0.11300
C155        C  0.13936249  0.84394924  0.23334428    -0.14800
C156        C  0.09277541  0.83744784  0.24828137     0.07400
C157        C  0.09029478  0.87767701  0.26717641    -0.14800
C158        C  0.13214160  0.92341396  0.26792544    -0.14800
C159        C  0.17787028  0.93027703  0.25017525     0.07400
C160        C  0.18095024  0.88974170  0.23340427    -0.14800
H161        H  0.14394338  0.81356155  0.22144253     0.11300
H162        H  0.05633363  0.87393948  0.28226074     0.11300
H163        H  0.12864366  0.95321730  0.28319996     0.11300
H164        H  0.21529083  0.89311907  0.21977094     0.11300
C165        C  0.86753112  0.69435880  0.27105246    -0.14800
C166        C  0.90547149  0.72792981  0.24207436     0.07400
C167        C  0.89393144  0.75438736  0.20901963    -0.14800
C168        C  0.84663971  0.75020785  0.20730594    -0.14800
C169        C  0.80969321  0.71977002  0.23887293     0.07400
C170        C  0.81987749  0.69038074  0.26956161    -0.14800
H171        H  0.87541354  0.67330843  0.29662532     0.11300
H172        H  0.92201137  0.77945777  0.18528222     0.11300
H173        H  0.83949362  0.77246832  0.18249913     0.11300
H174        H  0.79206787  0.66669032  0.29427519     0.11300
C175        C  0.55993486  0.94898917  0.13146471    -0.14800
C176        C  0.57634410  0.97903043  0.09175283     0.07400
C177        C  0.62708591  0.01013539  0.08613351    -0.14800
C178        C  0.66070955  0.01302018  0.12071593    -0.14800
C179        C  0.64424188  0.98629870  0.16287312     0.07400
C180        C  0.59340796  0.95303976  0.16701471    -0.14800
H181        H  0.52083581  0.92464404  0.13642130     0.11300
H182        H  0.64067919  0.03296136  0.05521441     0.11300
H183        H  0.69946112  0.03730551  0.11444791     0.11300
H184        H  0.57850945  0.93169584  0.19845305     0.11300
C185        C  0.56532602  0.93990715  0.37613735    -0.14800
C186        C  0.56253941  0.98176557  0.38972365     0.07400
C187        C  0.59172400  0.02537275  0.36582573    -0.14800
C188        C  0.62502138  0.02811720  0.33147485    -0.14800
C189        C  0.63071522  0.98750625  0.32010874     0.07400
C190        C  0.59931525  0.94278292  0.34137192    -0.14800
H191        H  0.54280414  0.90563423  0.39357420     0.11300
H192        H  0.58973070  0.05805674  0.37437534     0.11300
H193        H  0.64747380  0.06272547  0.31452880     0.11300
H194        H  0.60270729  0.91084762  0.33279849     0.11300
C195        C  0.34289539  0.96127497  0.38442226    -0.14800
C196        C  0.38667880  0.00084107  0.40075394     0.07400
C197        C  0.40139575  0.04686656  0.38117358    -0.14800
C198        C  0.37303207  0.05347468  0.34655853    -0.14800
C199        C  0.32906579  0.01429741  0.33052876     0.07400
C200        C  0.31433910  0.96796954  0.34941230    -0.14800
H201        H  0.33070559  0.92535320  0.39874625     0.11300
H202        H  0.43525126  0.07804297  0.39232864     0.11300
H203        H  0.38602208  0.08934313  0.33178726     0.11300
H204        H  0.28050581  0.93717654  0.33759713     0.11300
C205        C  0.35332626  0.95983085  0.12540987    -0.14800
C206        C  0.39542483  0.00018130  0.10729685     0.07400
C207        C  0.40765683  0.04638308  0.12471819    -0.14800
C208        C  0.37779484  0.05244524  0.15797739    -0.14800
C209        C  0.33465672  0.01254316  0.17481892     0.07400
C210        C  0.32330213  0.96597109  0.15908989    -0.14800
H211        H  0.34306247  0.92370322  0.11289512     0.11300
H212        H  0.44004439  0.07825239  0.11209607     0.11300
H213        H  0.38858342  0.08870109  0.17046561     0.11300
H214        H  0.29050662  0.93454827  0.17163004     0.11300
C215        C  0.95422354  0.60077428  0.12627383    -0.14800
C216        C  0.99710346  0.60333519  0.10577599     0.07400
C217        C  0.04359861  0.63978457  0.12036527    -0.14800
C218        C  0.04724274  0.67330373  0.15422011    -0.14800
C219        C  0.00448085  0.67145399  0.17417326     0.07400
C220        C  0.95790170  0.63452402  0.16028175    -0.14800
H221        H  0.91784851  0.57292950  0.11581506     0.11300
H222        H  0.07735400  0.64261524  0.10550484     0.11300
H223        H  0.08377779  0.70051346  0.16500236     0.11300
H224        H  0.92430970  0.63233997  0.17480055     0.11300
C225        C  0.04398663  0.64581801  0.38617737    -0.14800
C226        C  0.99756710  0.61048558  0.40238465     0.07400
C227        C  0.95460743  0.60877550  0.38276180    -0.14800
C228        C  0.95807445  0.64170652  0.34770424    -0.14800
C229        C  0.00452147  0.67726057  0.33187953     0.07400
C230        C  0.04741234  0.67878520  0.35139073    -0.14800
H231        H  0.07780030  0.64793847  0.40022843     0.11300
H232        H  0.91825347  0.58188163  0.39438024     0.11300
H233        H  0.92441766  0.63966459  0.33346515     0.11300
H234        H  0.08380136  0.70497028  0.33918421     0.11300
C235        C  0.02303620  0.41852346  0.37986089    -0.14800
C236        C  0.98005302  0.41699027  0.39901589     0.07400
C237        C  0.93360981  0.38112618  0.38352928    -0.14800
C238        C  0.93010415  0.34691621  0.35045180    -0.14800
C239        C  0.97294904  0.34770099  0.33204323     0.07400
C240        C  0.01949222  0.38421816  0.34657580    -0.14800
H241        H  0.05939486  0.44583991  0.39100071     0.11300
H242        H  0.89979861  0.37912295  0.39730423     0.11300
H243        H  0.89368694  0.31999919  0.33905220     0.11300
H244        H  0.05314512  0.38560814  0.33314663     0.11300
C245        C  0.93417291  0.37348220  0.11983314    -0.14800
C246        C  0.98058690  0.41059254  0.10573291     0.07400
C247        C  0.02343745  0.41393252  0.12711983    -0.14800
C248        C  0.01987453  0.38063644  0.16169337    -0.14800
C249        C  0.97352097  0.34307357  0.17527633     0.07400
C250        C  0.93066603  0.34011910  0.15415821    -0.14800
H251        H  0.90039877  0.37010750  0.10430502     0.11300
H252        H  0.05973417  0.44230357  0.11719207     0.11300
H253        H  0.05357890  0.38414549  0.17725827     0.11300
H254        H  0.89422947  0.31251255  0.16467348     0.11300
C255        C  0.57319397  0.61534362  0.12966904    -0.14800
C256        C  0.58929546  0.58579360  0.10649969     0.07400
C257        C  0.63408243  0.58749265  0.12064972    -0.14800
C258        C  0.66314761  0.61982493  0.15592774    -0.14800
C259        C  0.64779161  0.65083428  0.17728346     0.07400
C260        C  0.60193414  0.64725277  0.16464649    -0.14800
H261        H  0.53841418  0.61428252  0.12043639     0.11300
H262        H  0.64722040  0.56487730  0.10364061     0.11300
H263        H  0.69837572  0.62192335  0.16517732     0.11300
H264        H  0.58847763  0.66973156  0.18144681     0.11300
C265        C  0.63660075  0.58721496  0.37969469    -0.14800
C266        C  0.59545978  0.59050025  0.39749503     0.07400
C267        C  0.58595769  0.62742683  0.38075068    -0.14800
C268        C  0.61693866  0.66067134  0.34774568    -0.14800
C269        C  0.65878739  0.65842567  0.33061381     0.07400
C270        C  0.66797770  0.62090479  0.34633304    -0.14800
H271        H  0.64472482  0.55895776  0.39180228     0.11300
H272        H  0.55431090  0.63075395  0.39307033     0.11300
H273        H  0.60743212  0.68783978  0.33513213     0.11300
H274        H  0.69968656  0.61806565  0.33342637     0.11300
C275        C  0.40233067  0.36855730  0.37966716    -0.14800
C276        C  0.40659325  0.41318403  0.39446444     0.07400
C277        C  0.37603503  0.43002392  0.37352829    -0.14800
C278        C  0.34132166  0.40267421  0.33966186    -0.14800
C279        C  0.33585271  0.35751139  0.32574693     0.07400
C280        C  0.36723146  0.34093946  0.34535272    -0.14800
H281        H  0.42541469  0.35469339  0.39513508     0.11300
H282        H  0.37869832  0.46451705  0.38343208     0.11300
H283        H  0.31864600  0.41705417  0.32424327     0.11300
H284        H  0.36371257  0.30620646  0.33509670     0.11300
C285        C  0.41853165  0.39328287  0.13983760    -0.14800
C286        C  0.40346195  0.40705112  0.09848471     0.07400
C287        C  0.35304090  0.39078655  0.09064986    -0.14800
C288        C  0.31809840  0.36213350  0.12394750    -0.14800
C289        C  0.33274539  0.35079825  0.16725332     0.07400
C290        C  0.38357000  0.36599522  0.17427319    -0.14800
H291        H  0.45746367  0.40556846  0.14646888     0.11300
H292        H  0.34060097  0.40026239  0.05849127     0.11300
H293        H  0.27963452  0.34956059  0.11535035     0.11300
H294        H  0.39698366  0.35866599  0.20683162     0.11300
O295        O  0.47703217  0.43272543  0.54892037    -0.74400
O296        O  0.56729600  0.52137461  0.94963873    -0.75400
O297        O  0.56909097  0.52051266  0.54883290    -0.64000
O298        O  0.47445712  0.43397694  0.94871805    -0.72400
O299        O  0.43652791  0.47908702  0.94949062    -0.72000
O300        O  0.52585873  0.56055412  0.54946795    -0.63200
O301        O  0.52703562  0.56431511  0.95138159    -0.75700
O302        O  0.43509526  0.47423387  0.54702240    -0.74500
Cu303      Cu  0.52254312  0.47579430  0.99976681     1.04600
Cu304      Cu  0.48022879  0.52054534  0.49900836     1.04300
C305        C  0.44130744  0.43948708  0.56324967     0.91800
C306        C  0.56122009  0.55661737  0.93436411     0.90900
C307        C  0.56140494  0.55434780  0.56532818     0.83100
C308        C  0.44093562  0.44361754  0.93283618     0.89400
O309        O  0.03387381  0.57110924  0.95394853    -0.74400
O310        O  0.02430669  0.47871468  0.55183799    -0.75400
O311        O  0.02704041  0.47762572  0.95341158    -0.64000
O312        O  0.03296688  0.57274502  0.55456570    -0.72400
O313        O  0.95122112  0.54105726  0.55468649    -0.72000
O314        O  0.94518151  0.44503041  0.95360937    -0.63200
O315        O  0.94251432  0.44664189  0.55142521    -0.75700
O316        O  0.95199344  0.53820454  0.95363762    -0.74500
Cu317      Cu  0.03190704  0.52854690  0.50335384     1.04600
Cu318      Cu  0.94446315  0.49441358  0.50310788     1.04300
C319        C  0.99415110  0.56978736  0.93823081     0.93900
C320        C  0.98191538  0.44715658  0.56692203     0.90900
C321        C  0.98481991  0.44661183  0.93760143     0.83100
C322        C  0.99356489  0.57133583  0.57100998     0.89400
O323        O  0.45540601  0.03610192  0.95403708    -0.74400
O324        O  0.54865757  0.02442837  0.54468266    -0.75400
O325        O  0.54109499  0.02589283  0.94498165    -0.64000
O326        O  0.46152867  0.03413817  0.55238692    -0.72400
O327        O  0.41408317  0.95447843  0.55276453    -0.72000
O328        O  0.49778657  0.94572892  0.94472755    -0.63200
O329        O  0.50228475  0.94454766  0.54839840    -0.75700
O330        O  0.41008392  0.95622276  0.95095583    -0.74500
Cu331      Cu  0.50354976  0.03228098  0.99896901     1.04600
Cu332      Cu  0.45411133  0.94588949  0.50028696     1.04300
C333        C  0.41853158  0.99845380  0.93744563     0.91800
C334        C  0.54063437  0.98338349  0.56097592     0.90900
C335        C  0.53243826  0.98505248  0.92777317     0.83100
C336        C  0.42470507  0.99636714  0.56899210     0.89400
C337        C  0.04831559  0.78683825  0.75523319     0.85000
C338        C  0.04473628  0.75793308  0.80008299    -0.55200
C339        C  0.00700860  0.71134027  0.79996616     0.08000
C340        C  0.97428062  0.69860204  0.75552666     0.18900
C341        C  0.04956434  0.75512834  0.71489413    -0.55900
C342        C  0.01096984  0.70898610  0.71476463     0.08100
C343        C  0.99701843  0.78420363  0.75165051    -0.55400
C344        C  0.95814089  0.73814298  0.75132514     0.08600
H345        H  0.07056677  0.77278183  0.82913762     0.13200
H346        H  0.94313887  0.66112634  0.75532444    -0.01100
H347        H  0.07853288  0.76848599  0.68844183     0.13500
H348        H  0.99141182  0.81584726  0.75046681     0.13300
C349        C  0.93209979  0.23241981  0.75344285     0.85000
C350        C  0.93181188  0.26320501  0.79506792    -0.55200
C351        C  0.96876058  0.31003424  0.79401675     0.08000
C352        C  0.00343053  0.32173703  0.75137355     0.18900
C353        C  0.93175660  0.26094459  0.70955851    -0.55900
C354        C  0.96859621  0.30790887  0.70843624     0.08100
C355        C  0.98426549  0.23698855  0.75448431    -0.55400
C356        C  0.02144255  0.28361018  0.75345903     0.08600
H357        H  0.90456514  0.24883585  0.82307185     0.13200
H358        H  0.03373055  0.35963186  0.75092806    -0.01100
H359        H  0.90404000  0.24510974  0.68208761     0.13500
H360        H  0.99245006  0.20702843  0.75609292     0.13300
C361        C  0.22004790  0.30529810  0.74760981     0.85000
C362        C  0.25261873  0.33089801  0.78994515    -0.55200
C363        C  0.29719099  0.33102068  0.79063979     0.08000
C364        C  0.30457856  0.30385045  0.74892390     0.18900
C365        C  0.25311902  0.32976193  0.70474275    -0.55900
C366        C  0.29742625  0.32899995  0.70497618     0.08100
C367        C  0.21500937  0.25423232  0.74809233    -0.55400
C368        C  0.25888375  0.25279593  0.74943854     0.08600
H369        H  0.24149948  0.34848729  0.81668249     0.13200
H370        H  0.34057370  0.30374731  0.75016451    -0.01100
H371        H  0.24340133  0.34718391  0.67690938     0.13500
H372        H  0.17920054  0.22201999  0.74657613     0.13300
C373        C  0.26629404  0.06907416  0.74766002     0.85000
C374        C  0.29332317  0.06531020  0.79145654    -0.55200
C375        C  0.29907069  0.02470112  0.79342445     0.08000
C376        C  0.27639127  0.99076925  0.75088030     0.18900
C377        C  0.29509037  0.06361254  0.70600325    -0.55900
C378        C  0.30146552  0.02335609  0.70791331     0.08100
C379        C  0.21692163  0.02163199  0.74702655    -0.55400
C380        C  0.22169587  0.98028173  0.74874690     0.08600
H381        H  0.30733659  0.09311553  0.81841927     0.13200
H382        H  0.28182461  0.95825526  0.75201165    -0.01100
H383        H  0.30968691  0.08966123  0.67744478     0.13500
H384        H  0.18124321  0.02076367  0.74532371     0.13300
C385        C  0.75490247  0.04181816  0.75247548     0.85000
C386        C  0.72548880  0.03775847  0.70750472    -0.55200
C387        C  0.68061155  0.99668259  0.70424736     0.08000
C388        C  0.66978344  0.96294368  0.74742937     0.18900
C389        C  0.71945673  0.03604701  0.79255793    -0.55900
C390        C  0.67451506  0.99554462  0.78977583     0.08100
C391        C  0.75914801  0.99507889  0.75389165    -0.55400
C392        C  0.71496518  0.95372019  0.75053391     0.08600
H393        H  0.73899283  0.06680121  0.68182581     0.13200
H394        H  0.63402427  0.92926614  0.74611404    -0.01100
H395        H  0.72846256  0.06313710  0.81986684     0.13500
H396        H  0.79350882  0.99370339  0.75781923     0.13300
C397        C  0.71472325  0.76745191  0.74984923     0.85000
C398        C  0.68590968  0.73564468  0.70842086    -0.55200
C399        C  0.68321745  0.69080127  0.70778732     0.08000
C400        C  0.71090226  0.68211804  0.74908904     0.18900
C401        C  0.69093341  0.73682937  0.79368055    -0.55900
C402        C  0.68721802  0.69167948  0.79300907     0.08100
C403        C  0.76558920  0.76948942  0.74760275    -0.55400
C404        C  0.76411372  0.72517036  0.74659423     0.08600
H405        H  0.66849143  0.74773703  0.68204646     0.13200
H406        H  0.70885800  0.64580045  0.74879146    -0.01100
H407        H  0.67627683  0.74898916  0.82236401     0.13500
H408        H  0.80023648  0.80304188  0.74793770     0.13300
C409        C  0.75123671  0.90054134  0.72608765    -0.14800
C410        C  0.71266505  0.90538480  0.74783510     0.07400
C411        C  0.67298258  0.86420341  0.76720356    -0.14800
C412        C  0.67332619  0.81972900  0.76708794    -0.14800
C413        C  0.71420289  0.81583116  0.74911935     0.07400
C414        C  0.75190244  0.85641451  0.72652184    -0.14800
H415        H  0.78106195  0.93093937  0.70837832     0.11300
H416        H  0.64221250  0.86643679  0.78335102     0.11300
H417        H  0.64165749  0.78850179  0.78159173     0.11300
H418        H  0.78184400  0.85430652  0.70856291     0.11300
C419        C  0.30439702  0.15992431  0.73271722    -0.14800
C420        C  0.26328463  0.11642006  0.74724777     0.07400
C421        C  0.22234932  0.11922423  0.76611408    -0.14800
C422        C  0.22128085  0.16332032  0.76739998    -0.14800
C423        C  0.26117707  0.20617483  0.75005959     0.07400
C424        C  0.30296203  0.20386540  0.73315202    -0.14800
H425        H  0.33796879  0.16015982  0.72075689     0.11300
H426        H  0.19140907  0.08777301  0.78112247     0.11300
H427        H  0.18928187  0.16368238  0.78286866     0.11300
H428        H  0.33456178  0.23573099  0.71956818     0.11300
C429        C  0.10717176  0.32489022  0.72097087    -0.14800
C430        C  0.07387846  0.29498895  0.75509093     0.07400
C431        C  0.08966519  0.27239953  0.78858285    -0.14800
C432        C  0.13737266  0.27775130  0.78658146    -0.14800
C433        C  0.17008380  0.30471669  0.75028467     0.07400
C434        C  0.15482083  0.32970351  0.71839037    -0.14800
H435        H  0.09562580  0.34273395  0.69493931     0.11300
H436        H  0.06462939  0.24972622  0.81574071     0.11300
H437        H  0.14829066  0.25928214  0.81258062     0.11300
H438        H  0.17866205  0.35272958  0.69105027     0.11300
C439        C  0.84027763  0.17787436  0.75511073    -0.14800
C440        C  0.88790299  0.18192581  0.75458967     0.07400
C441        C  0.89214763  0.13912221  0.75452977    -0.14800
C442        C  0.85003343  0.09382607  0.75454371    -0.14800
C443        C  0.80235049  0.08989992  0.75470049     0.07400
C444        C  0.79830656  0.13273716  0.75516679    -0.14800
H445        H  0.83558389  0.21004050  0.75507872     0.11300
H446        H  0.92745138  0.13955341  0.75376272     0.11300
H447        H  0.85594464  0.06259158  0.75349625     0.11300
H448        H  0.76225332  0.13117525  0.75500543     0.11300
C449        C  0.13923108  0.84545017  0.77171129    -0.14800
C450        C  0.09308540  0.83753011  0.75380511     0.07400
C451        C  0.09111871  0.87625615  0.73044919    -0.14800
C452        C  0.13275472  0.92204618  0.72826843    -0.14800
C453        C  0.17796869  0.93061555  0.74889389     0.07400
C454        C  0.18075479  0.89138533  0.76994036    -0.14800
H455        H  0.14341455  0.81607223  0.78733182     0.11300
H456        H  0.05781202  0.87134044  0.71282585     0.11300
H457        H  0.12945681  0.95050181  0.70960098     0.11300
H458        H  0.21474703  0.89594808  0.78568006     0.11300
C459        C  0.86707588  0.69309149  0.77226577    -0.14800
C460        C  0.90603253  0.72867533  0.74563191     0.07400
C461        C  0.89571371  0.75787799  0.71492282    -0.14800
C462        C  0.84868522  0.75425231  0.71334349    -0.14800
C463        C  0.81058448  0.72145336  0.74257026     0.07400
C464        C  0.81956211  0.68953667  0.77079156    -0.14800
H465        H  0.87396013  0.66990408  0.79602341     0.11300
H466        H  0.92451840  0.78457113  0.69286232     0.11300
H467        H  0.84252378  0.77843666  0.69025459     0.11300
H468        H  0.79079560  0.66387467  0.79357294     0.11300
C469        C  0.56033502  0.95155052  0.63428624    -0.14800
C470        C  0.57634037  0.98174944  0.59468114     0.07400
C471        C  0.62695097  0.01331913  0.58894123    -0.14800
C472        C  0.66093403  0.01588679  0.62295088    -0.14800
C473        C  0.64497555  0.98841317  0.66475207     0.07400
C474        C  0.59415966  0.95531778  0.66932479    -0.14800
H475        H  0.52132188  0.92696302  0.63938352     0.11300
H476        H  0.64022861  0.03638821  0.55815086     0.11300
H477        H  0.69957418  0.04025918  0.61632199     0.11300
H478        H  0.57959240  0.93359812  0.70059524     0.11300
C479        C  0.56771676  0.94283462  0.87682177    -0.14800
C480        C  0.56376337  0.98451403  0.88847243     0.07400
C481        C  0.59270636  0.02770837  0.86384670    -0.14800
C482        C  0.62678274  0.03012329  0.83039971    -0.14800
C483        C  0.63316722  0.98953270  0.82076284     0.07400
C484        C  0.60225371  0.94533450  0.84300381    -0.14800
H485        H  0.54565063  0.90898778  0.89512389     0.11300
H486        H  0.58990263  0.06021165  0.87120312     0.11300
H487        H  0.64917723  0.06433229  0.81274504     0.11300
H488        H  0.60639151  0.91353102  0.83585943     0.11300
C489        C  0.34405789  0.96444850  0.88386404    -0.14800
C490        C  0.38654124  0.00443771  0.90167836     0.07400
C491        C  0.39950254  0.05078232  0.88383453    -0.14800
C492        C  0.37101076  0.05705589  0.84895170    -0.14800
C493        C  0.32861733  0.01721010  0.83098368     0.07400
C494        C  0.31544061  0.97080087  0.84873218    -0.14800
H495        H  0.33306350  0.92827756  0.89690414     0.11300
H496        H  0.43220807  0.08237386  0.89634805     0.11300
H497        H  0.38286570  0.09319566  0.83537275     0.11300
H498        H  0.28282182  0.93950482  0.83587605     0.11300
C499        C  0.35137010  0.96199216  0.62420756    -0.14800
C500        C  0.39402493  0.00197486  0.60642809     0.07400
C501        C  0.40655400  0.04836830  0.62363889    -0.14800
C502        C  0.37675870  0.05486848  0.65677954    -0.14800
C503        C  0.33351205  0.01520183  0.67376226     0.07400
C504        C  0.32150420  0.96854835  0.65775823    -0.14800
H505        H  0.34068379  0.92577411  0.61169826     0.11300
H506        H  0.43927349  0.07998503  0.61113814     0.11300
H507        H  0.38779013  0.09117202  0.66927660     0.11300
H508        H  0.28839573  0.93733356  0.67022700     0.11300
C509        C  0.95491946  0.60505027  0.62769077    -0.14800
C510        C  0.99740848  0.60526024  0.60891835     0.07400
C511        C  0.04408997  0.63877825  0.62634781    -0.14800
C512        C  0.04832848  0.67193620  0.66100841    -0.14800
C513        C  0.00600407  0.67243118  0.67912123     0.07400
C514        C  0.95919649  0.63828904  0.66254203    -0.14800
H515        H  0.91841129  0.57959772  0.61508518     0.11300
H516        H  0.07755379  0.63967376  0.61299529     0.11300
H517        H  0.08485775  0.69708682  0.67379221     0.11300
H518        H  0.92593989  0.63804674  0.67557383     0.11300
C519        C  0.04308157  0.64415325  0.89006593    -0.14800
C520        C  0.99705429  0.60543299  0.90250855     0.07400
C521        C  0.95398866  0.60169082  0.88109573    -0.14800
C522        C  0.95696726  0.63617444  0.84805942    -0.14800
C523        C  0.00301505  0.67520319  0.83603222     0.07400
C524        C  0.04602937  0.67855309  0.85724854    -0.14800
H525        H  0.07696200  0.64801449  0.90576325     0.11300
H526        H  0.91794236  0.57213750  0.88990179     0.11300
H527        H  0.92317899  0.63252748  0.83246318     0.11300
H528        H  0.08232130  0.70728230  0.84787294     0.11300
C529        C  0.02418042  0.41477782  0.87988438    -0.14800
C530        C  0.98139851  0.41225945  0.90054818     0.07400
C531        C  0.93477366  0.37649799  0.88535729    -0.14800
C532        C  0.93087529  0.34374331  0.85055742    -0.14800
C533        C  0.97350798  0.34584931  0.83017792     0.07400
C534        C  0.02023485  0.38186878  0.84486901    -0.14800
H535        H  0.06064241  0.44202764  0.89084597     0.11300
H536        H  0.90110065  0.37371153  0.90037335     0.11300
H537        H  0.89431797  0.31700965  0.83928779     0.11300
H538        H  0.05370768  0.38400791  0.83006709     0.11300
C539        C  0.93233519  0.37255683  0.61522848    -0.14800
C540        C  0.97847886  0.41111671  0.60253542     0.07400
C541        C  0.02136851  0.41507636  0.62439945    -0.14800
C542        C  0.01817841  0.38146424  0.65844761    -0.14800
C543        C  0.97211281  0.34289012  0.67120010     0.07400
C544        C  0.92917794  0.33881727  0.64911699    -0.14800
H545        H  0.89855543  0.36849647  0.59909679     0.11300
H546        H  0.05748737  0.44439521  0.61543692     0.11300
H547        H  0.05199054  0.38567317  0.67440568     0.11300
H548        H  0.89290824  0.31020783  0.65870492     0.11300
C549        C  0.57884466  0.61966660  0.62319101    -0.14800
C550        C  0.59282687  0.58711123  0.60306574     0.07400
C551        C  0.63630902  0.58718004  0.61918969    -0.14800
C552        C  0.66567034  0.62018443  0.65401760    -0.14800
C553        C  0.65195228  0.65353262  0.67290121     0.07400
C554        C  0.60773666  0.65209362  0.65764603    -0.14800
H555        H  0.54529504  0.62029889  0.61230607     0.11300
H556        H  0.64792954  0.56236965  0.60446193     0.11300
H557        H  0.69956325  0.62047167  0.66524291     0.11300
H558        H  0.59513411  0.67610805  0.67248302     0.11300
C559        C  0.63685614  0.58832105  0.88203767    -0.14800
C560        C  0.59313529  0.58877352  0.89648568     0.07400
C561        C  0.57957405  0.62078793  0.87433405    -0.14800
C562        C  0.60959762  0.65274192  0.83994303    -0.14800
C563        C  0.65441665  0.65408844  0.82691458     0.07400
C564        C  0.66730502  0.62078907  0.84734689    -0.14800
H565        H  0.64797962  0.56366092  0.89819446     0.11300
H566        H  0.54567327  0.62141832  0.88371695     0.11300
H567        H  0.59776875  0.67684123  0.82366048     0.11300
H568        H  0.70145703  0.62088909  0.83757504     0.11300
C569        C  0.40284358  0.37056703  0.87910298    -0.14800
C570        C  0.40640222  0.41458763  0.89497531     0.07400
C571        C  0.37541442  0.43129190  0.87476673    -0.14800
C572        C  0.34095661  0.40439967  0.84058820    -0.14800
C573        C  0.33604924  0.35973202  0.82563733     0.07400
C574        C  0.36791040  0.34334116  0.84450011    -0.14800
H575        H  0.42634798  0.35687005  0.89392909     0.11300
H576        H  0.37754614  0.46536626  0.88545060     0.11300
H577        H  0.31812716  0.41885953  0.82570516     0.11300
H578        H  0.36494426  0.30904680  0.83342695     0.11300
C579        C  0.42120732  0.39865716  0.64199228    -0.14800
C580        C  0.40573941  0.40667589  0.59792937     0.07400
C581        C  0.35513841  0.38583219  0.58790455    -0.14800
C582        C  0.32024607  0.35833380  0.62174418    -0.14800
C583        C  0.33511717  0.35259278  0.66718438     0.07400
C584        C  0.38612486  0.37221850  0.67661538    -0.14800
H585        H  0.46027861  0.41483831  0.65035095     0.11300
H586        H  0.34259511  0.39121077  0.55382959     0.11300
H587        H  0.28152552  0.34232354  0.61225606     0.11300
H588        H  0.39915643  0.36910210  0.71116450     0.11300
loop_ 
_geom_bond_atom_site_label_1 
_geom_bond_atom_site_label_2 
_geom_bond_distance 
_geom_bond_site_symmetry_2 
_ccdc_geom_bond_type 
O1           C11   1.278       .  A
O1         Cu303   2.022   1_554  S
O2           C12   1.279       .  A
O2           Cu9   2.024       .  S
O3           C13   1.281       .  A
O3         Cu303   2.033   1_554  S
O4           C14   1.282       .  A
O4           Cu9   2.044       .  S
O5           C14   1.275       .  A
O5         Cu304   1.977       .  S
O6           C13   1.276       .  A
O6          Cu10   1.984   1_554  S
O7           C12   1.278       .  A
O7         Cu304   1.994       .  S
O8           C11   1.277       .  A
O8          Cu10   1.998   1_554  S
Cu9         O295   2.023       .  S
Cu9         O297   2.036       .  S
Cu9        Cu304   2.370       .  S
Cu10        O299   1.974       .  S
Cu10        O301   1.999       .  S
Cu10       Cu303   2.371       .  S
C11         C286   1.471       .  S
C12         C266   1.482       .  S
C13         C256   1.481       .  S
C14         C276   1.483       .  S
O15          C25   1.279   1_455  A
O15        Cu317   2.010       .  S
O16          C26   1.278   1_455  A
O16         Cu23   2.009       .  S
O17          C27   1.277   1_455  A
O17        Cu317   2.005       .  S
O18          C28   1.278   1_455  A
O18         Cu23   2.000       .  S
O19          C28   1.277       .  A
O19         Cu24   2.004       .  S
O20          C27   1.279       .  A
O20        Cu318   2.007       .  S
O21          C26   1.278       .  A
O21         Cu24   2.001       .  S
O22          C25   1.278       .  A
O22        Cu318   2.010       .  S
Cu23        O309   2.007   1_554  S
Cu23        O311   2.005   1_554  S
Cu23        Cu24   2.372   1_455  S
Cu24        O314   1.998   1_554  S
Cu24        O316   2.004   1_554  S
C25         C226   1.482       .  S
C26         C246   1.478       .  S
C27         C236   1.479       .  S
C28         C216   1.477       .  S
O29          C39   1.276   1_545  A
O29         Cu37   1.987       .  S
O30          C40   1.276   1_545  A
O30        Cu331   1.998   1_554  S
O31          C41   1.277   1_545  A
O31         Cu37   1.986       .  S
O32          C42   1.278   1_545  A
O32        Cu331   2.000   1_554  S
O33          C42   1.280       .  A
O33         Cu38   2.028   1_554  S
O34          C41   1.281       .  A
O34        Cu332   2.039       .  S
O35          C40   1.279       .  A
O35         Cu38   2.025   1_554  S
O36          C39   1.280       .  A
O36        Cu332   2.027       .  S
Cu37        O324   1.992       .  S
Cu37        O326   2.001       .  S
Cu37       Cu332   2.370   1_545  S
Cu38        O328   2.032       .  S
Cu38        O330   2.027       .  S
Cu38       Cu331   2.370   1_565  S
C39         C196   1.481   1_565  S
C40         C176   1.474       .  S
C41         C186   1.484       .  S
C42         C206   1.485   1_565  S
C43          C44   1.530       .  S
C43          C49   1.540   1_455  S
C43          C47   1.535       .  S
C43         C156   1.529       .  S
C44          H51   1.086       .  S
C44          C45   1.367       .  D
C45          C46   1.543   1_455  S
C45         C229   1.487       .  S
C46          C50   1.542       .  S
C46          C48   1.542   1_655  S
C46          H52   1.109       .  S
C47          H53   1.085       .  S
C47          C48   1.366       .  D
C48         C219   1.483       .  S
C49          H54   1.085       .  S
C49          C50   1.371       .  D
C50         C166   1.488       .  S
C55          C56   1.533       .  S
C55          C61   1.538       .  S
C55          C59   1.536       .  S
C55         C146   1.524       .  S
C56          H63   1.086       .  S
C56          C57   1.367       .  D
C57          C58   1.540   1_655  S
C57         C239   1.483       .  S
C58          C62   1.539       .  S
C58          C60   1.541   1_455  S
C58          H64   1.109       .  S
C59          H65   1.086       .  S
C59          C60   1.367       .  D
C60         C249   1.486       .  S
C61          H66   1.081       .  S
C61          C62   1.363   1_655  D
C62         C136   1.479       .  S
C67          C68   1.527       .  S
C67          C73   1.534       .  S
C67          C71   1.539       .  S
C67         C139   1.527       .  S
C68          H75   1.086       .  S
C68          C69   1.365       .  D
C69          C70   1.541       .  S
C69         C279   1.484       .  S
C70          C74   1.546       .  S
C70          C72   1.548       .  S
C70          H76   1.106       .  S
C71          H77   1.077       .  S
C71          C72   1.373       .  D
C72         C289   1.501       .  S
C73          H78   1.086       .  S
C73          C74   1.365       .  D
C74         C129   1.487       .  S
C79          C80   1.530       .  S
C79          C85   1.538       .  S
C79          C83   1.537       .  S
C79         C126   1.528       .  S
C80          H87   1.086       .  S
C80          C81   1.366       .  D
C81          C82   1.538   1_545  S
C81         C199   1.483       .  S
C82          C86   1.550       .  S
C82          C84   1.542   1_565  S
C82          H88   1.108       .  S
C83          H89   1.084       .  S
C83          C84   1.365       .  D
C84         C209   1.489       .  S
C85          H90   1.085       .  S
C85          C86   1.372   1_545  D
C86         C159   1.495       .  S
C91          C92   1.536       .  S
C91          C97   1.532   1_545  S
C91          C95   1.524       .  S
C91         C149   1.526       .  S
C92          H99   1.084       .  S
C92          C93   1.374   1_545  D
C93          C94   1.548       .  S
C93         C179   1.501       .  S
C94          C98   1.547       .  S
C94          C96   1.545       .  S
C94         H100   1.105       .  S
C95         H101   1.087       .  S
C95          C96   1.365   1_545  D
C96         C189   1.486       .  S
C97         H102   1.079       .  S
C97          C98   1.365       .  D
C98         C116   1.488       .  S
C103        C104   1.528       .  S
C103        C109   1.534       .  S
C103        C107   1.530       .  S
C103        C119   1.524       .  S
C104        H111   1.086       .  S
C104        C105   1.367       .  D
C105        C106   1.543       .  S
C105        C259   1.483       .  S
C106        C110   1.549       .  S
C106        C108   1.546       .  S
C106        H112   1.110       .  S
C107        H113   1.086       .  S
C107        C108   1.367       .  D
C108        C269   1.487       .  S
C109        H114   1.083       .  S
C109        C110   1.367       .  D
C110        C169   1.488       .  S
C115        C116   1.408       .  A
C115        C120   1.392       .  A
C115        H121   1.082       .  S
C116        C117   1.401       .  A
C117        C118   1.399       .  A
C117        H122   1.082       .  S
C118        C119   1.412       .  A
C118        H123   1.083       .  S
C119        C120   1.405       .  A
C120        H124   1.079       .  S
C125        C126   1.413       .  A
C125        C130   1.398       .  A
C125        H131   1.080       .  S
C126        C127   1.407       .  A
C127        C128   1.398       .  A
C127        H132   1.082       .  S
C128        C129   1.407       .  A
C128        H133   1.083       .  S
C129        C130   1.400       .  A
C130        H134   1.082       .  S
C135        C136   1.399       .  A
C135        C140   1.399       .  A
C135        H141   1.081       .  S
C136        C137   1.402       .  A
C137        C138   1.393       .  A
C137        H142   1.083       .  S
C138        C139   1.407       .  A
C138        H143   1.083       .  S
C139        C140   1.413       .  A
C140        H144   1.077       .  S
C145        C146   1.406       .  A
C145        C150   1.394       .  A
C145        H151   1.084       .  S
C146        C147   1.407       .  A
C147        C148   1.393       .  A
C147        H152   1.077       .  S
C148        C149   1.408       .  A
C148        H153   1.077       .  S
C149        C150   1.407       .  A
C150        H154   1.084       .  S
C155        C156   1.411       .  A
C155        C160   1.397       .  A
C155        H161   1.082       .  S
C156        C157   1.407       .  A
C157        C158   1.400       .  A
C157        H162   1.081       .  S
C158        C159   1.409       .  A
C158        H163   1.082       .  S
C159        C160   1.403       .  A
C160        H164   1.080       .  S
C165        C166   1.407       .  A
C165        C170   1.407       .  A
C165        H171   1.082       .  S
C166        C167   1.403       .  A
C167        C168   1.394       .  A
C167        H172   1.083       .  S
C168        C169   1.406       .  A
C168        H173   1.083       .  S
C169        C170   1.405       .  A
C170        H174   1.083       .  S
C175        C176   1.401       .  A
C175        C180   1.402       .  A
C175        H181   1.083       .  S
C176        C177   1.400   1_565  A
C177        C178   1.395       .  A
C177        H182   1.084       .  S
C178        C179   1.411   1_545  A
C178        H183   1.080       .  S
C179        C180   1.411       .  A
C180        H184   1.079       .  S
C185        C186   1.410       .  A
C185        C190   1.410       .  A
C185        H191   1.083       .  S
C186        C187   1.403   1_565  A
C187        C188   1.388       .  A
C187        H192   1.083       .  S
C188        C189   1.403   1_545  A
C188        H193   1.083       .  S
C189        C190   1.406       .  A
C190        H194   1.083       .  S
C195        C196   1.407   1_565  A
C195        C200   1.404       .  A
C195        H201   1.083       .  S
C196        C197   1.405       .  A
C197        C198   1.391       .  A
C197        H202   1.083       .  S
C198        C199   1.402       .  A
C198        H203   1.083       .  S
C199        C200   1.406   1_545  A
C200        H204   1.083       .  S
C205        C206   1.409   1_565  A
C205        C210   1.405       .  A
C205        H211   1.083       .  S
C206        C207   1.404       .  A
C207        C208   1.393       .  A
C207        H212   1.083       .  S
C208        C209   1.406       .  A
C208        H213   1.083       .  S
C209        C210   1.405   1_545  A
C210        H214   1.082       .  S
C215        C216   1.407       .  A
C215        C220   1.400       .  A
C215        H221   1.083       .  S
C216        C217   1.403   1_655  A
C217        C218   1.392       .  A
C217        H222   1.083       .  S
C218        C219   1.406       .  A
C218        H223   1.082       .  S
C219        C220   1.404   1_455  A
C220        H224   1.082       .  S
C225        C226   1.404   1_455  A
C225        C230   1.396       .  A
C225        H231   1.083       .  S
C226        C227   1.407       .  A
C227        C228   1.400       .  A
C227        H232   1.083       .  S
C228        C229   1.403   1_655  A
C228        H233   1.081       .  S
C229        C230   1.406       .  A
C230        H234   1.083       .  S
C235        C236   1.407   1_455  A
C235        C240   1.400       .  A
C235        H241   1.083       .  S
C236        C237   1.404       .  A
C237        C238   1.394       .  A
C237        H242   1.083       .  S
C238        C239   1.405       .  A
C238        H243   1.082       .  S
C239        C240   1.404   1_655  A
C240        H244   1.083       .  S
C245        C246   1.404       .  A
C245        C250   1.395       .  A
C245        H251   1.083       .  S
C246        C247   1.405   1_655  A
C247        C248   1.398       .  A
C247        H252   1.083       .  S
C248        C249   1.404   1_455  A
C248        H253   1.080       .  S
C249        C250   1.407       .  A
C250        H254   1.082       .  S
C255        C256   1.405       .  A
C255        C260   1.391       .  A
C255        H261   1.083       .  S
C256        C257   1.407       .  A
C257        C258   1.405       .  A
C257        H262   1.083       .  S
C258        C259   1.405       .  A
C258        H263   1.083       .  S
C259        C260   1.403       .  A
C260        H264   1.083       .  S
C265        C266   1.409       .  A
C265        C270   1.406       .  A
C265        H271   1.082       .  S
C266        C267   1.402       .  A
C267        C268   1.389       .  A
C267        H272   1.083       .  S
C268        C269   1.407       .  A
C268        H273   1.082       .  S
C269        C270   1.404       .  A
C270        H274   1.083       .  S
C275        C276   1.407       .  A
C275        C280   1.406       .  A
C275        H281   1.083       .  S
C276        C277   1.406       .  A
C277        C278   1.390       .  A
C277        H282   1.083       .  S
C278        C279   1.402       .  A
C278        H283   1.083       .  S
C279        C280   1.406       .  A
C280        H284   1.083       .  S
C285        C286   1.402       .  A
C285        C290   1.404       .  A
C285        H291   1.083       .  S
C286        C287   1.398       .  A
C287        C288   1.393       .  A
C287        H292   1.084       .  S
C288        C289   1.411       .  A
C288        H293   1.080       .  S
C289        C290   1.412       .  A
C290        H294   1.080       .  S
O295        C305   1.278       .  A
O296        C306   1.279       .  A
O296       Cu303   2.024       .  S
O297        C307   1.281       .  A
O298        C308   1.282       .  A
O298       Cu303   2.042       .  S
O299        C308   1.274       .  A
O300        C307   1.276       .  A
O300       Cu304   1.982       .  S
O301        C306   1.278       .  A
O302        C305   1.276       .  A
O302       Cu304   1.995       .  S
C305        C580   1.468       .  S
C306        C560   1.483       .  S
C307        C550   1.483       .  S
C308        C570   1.482       .  S
O309        C319   1.279   1_455  A
O310        C320   1.278   1_455  A
O310       Cu317   2.010       .  S
O311        C321   1.277   1_455  A
O312        C322   1.278   1_455  A
O312       Cu317   2.003       .  S
O313        C322   1.279       .  A
O313       Cu318   2.014       .  S
O314        C321   1.278       .  A
O315        C320   1.278       .  A
O315       Cu318   2.009       .  S
O316        C319   1.277       .  A
Cu317      Cu318   2.371   1_455  S
C319        C520   1.479       .  S
C320        C540   1.481       .  S
C321        C530   1.476       .  S
C322        C510   1.481       .  S
O323        C333   1.277   1_545  A
O323       Cu331   1.996       .  S
O324        C334   1.276   1_545  A
O325        C335   1.277   1_545  A
O325       Cu331   1.988       .  S
O326        C336   1.278   1_545  A
O327        C336   1.281       .  A
O327       Cu332   2.032       .  S
O328        C335   1.280       .  A
O329        C334   1.280       .  A
O329       Cu332   2.026       .  S
O330        C333   1.280       .  A
C333        C490   1.484   1_565  S
C334        C470   1.473       .  S
C335        C480   1.481       .  S
C336        C500   1.487   1_565  S
C337        C338   1.536       .  S
C337        C343   1.539   1_455  S
C337        C341   1.532       .  S
C337        C450   1.531       .  S
C338        H345   1.085       .  S
C338        C339   1.368       .  D
C339        C340   1.543   1_455  S
C339        C523   1.487       .  S
C340        C344   1.541       .  S
C340        C342   1.540   1_655  S
C340        H346   1.109       .  S
C341        H347   1.086       .  S
C341        C342   1.368       .  D
C342        C513   1.485       .  S
C343        H348   1.084       .  S
C343        C344   1.369       .  D
C344        C460   1.489       .  S
C349        C350   1.532       .  S
C349        C355   1.538       .  S
C349        C353   1.536       .  S
C349        C440   1.520       .  S
C350        H357   1.086       .  S
C350        C351   1.365       .  D
C351        C352   1.539   1_655  S
C351        C533   1.480       .  S
C352        C356   1.537       .  S
C352        C354   1.542   1_455  S
C352        H358   1.109       .  S
C353        H359   1.086       .  S
C353        C354   1.367       .  D
C354        C543   1.489       .  S
C355        H360   1.082       .  S
C355        C356   1.363   1_655  D
C356        C430   1.474       .  S
C361        C362   1.527       .  S
C361        C367   1.533       .  S
C361        C365   1.538       .  S
C361        C433   1.526       .  S
C362        H369   1.086       .  S
C362        C363   1.365       .  D
C363        C364   1.541       .  S
C363        C573   1.485       .  S
C364        C368   1.549       .  S
C364        C366   1.545       .  S
C364        H370   1.106       .  S
C365        H371   1.079       .  S
C365        C366   1.370       .  D
C366        C583   1.493       .  S
C367        H372   1.085       .  S
C367        C368   1.368       .  D
C368        C423   1.496       .  S
C373        C374   1.530       .  S
C373        C379   1.540       .  S
C373        C377   1.537       .  S
C373        C420   1.530       .  S
C374        H381   1.086       .  S
C374        C375   1.366       .  D
C375        C376   1.543   1_545  S
C375        C493   1.488       .  S
C376        C380   1.550       .  S
C376        C378   1.543   1_565  S
C376        H382   1.108       .  S
C377        H383   1.085       .  S
C377        C378   1.366       .  D
C378        C503   1.489       .  S
C379        H384   1.083       .  S
C379        C380   1.372   1_545  D
C380        C453   1.498       .  S
C385        C386   1.534       .  S
C385        C391   1.531   1_545  S
C385        C389   1.527       .  S
C385        C443   1.522       .  S
C386        H393   1.083       .  S
C386        C387   1.372   1_545  D
C387        C388   1.548       .  S
C387        C473   1.500       .  S
C388        C392   1.546       .  S
C388        C390   1.543       .  S
C388        H394   1.105       .  S
C389        H395   1.087       .  S
C389        C390   1.364   1_545  D
C390        C483   1.483       .  S
C391        H396   1.080       .  S
C391        C392   1.365       .  D
C392        C410   1.485       .  S
C397        C398   1.527       .  S
C397        C403   1.532       .  S
C397        C401   1.530       .  S
C397        C413   1.524       .  S
C398        H405   1.086       .  S
C398        C399   1.368       .  D
C399        C400   1.545       .  S
C399        C553   1.487       .  S
C400        C404   1.550       .  S
C400        C402   1.546       .  S
C400        H406   1.110       .  S
C401        H407   1.086       .  S
C401        C402   1.365       .  D
C402        C563   1.485       .  S
C403        H408   1.085       .  S
C403        C404   1.369       .  D
C404        C463   1.489       .  S
C409        C410   1.407       .  A
C409        C414   1.393       .  A
C409        H415   1.082       .  S
C410        C411   1.400       .  A
C411        C412   1.399       .  A
C411        H416   1.082       .  S
C412        C413   1.413       .  A
C412        H417   1.082       .  S
C413        C414   1.405       .  A
C414        H418   1.081       .  S
C419        C420   1.411       .  A
C419        C424   1.399       .  A
C419        H425   1.082       .  S
C420        C421   1.407       .  A
C421        C422   1.398       .  A
C421        H426   1.081       .  S
C422        C423   1.409       .  A
C422        H427   1.081       .  S
C423        C424   1.403       .  A
C424        H428   1.081       .  S
C429        C430   1.398       .  A
C429        C434   1.398       .  A
C429        H435   1.082       .  S
C430        C431   1.401       .  A
C431        C432   1.393       .  A
C431        H436   1.083       .  S
C432        C433   1.408       .  A
C432        H437   1.083       .  S
C433        C434   1.413       .  A
C434        H438   1.077       .  S
C439        C440   1.405       .  A
C439        C444   1.390       .  A
C439        H445   1.084       .  S
C440        C441   1.408       .  A
C441        C442   1.395       .  A
C441        H446   1.077       .  S
C442        C443   1.408       .  A
C442        H447   1.077       .  S
C443        C444   1.406       .  A
C444        H448   1.083       .  S
C449        C450   1.410       .  A
C449        C454   1.400       .  A
C449        H455   1.082       .  S
C450        C451   1.408       .  A
C451        C452   1.399       .  A
C451        H456   1.081       .  S
C452        C453   1.408       .  A
C452        H457   1.082       .  S
C453        C454   1.404       .  A
C454        H458   1.079       .  S
C459        C460   1.408       .  A
C459        C464   1.408       .  A
C459        H465   1.082       .  S
C460        C461   1.403       .  A
C461        C462   1.393       .  A
C461        H466   1.083       .  S
C462        C463   1.405       .  A
C462        H467   1.083       .  S
C463        C464   1.406       .  A
C464        H468   1.083       .  S
C469        C470   1.400       .  A
C469        C474   1.401       .  A
C469        H475   1.083       .  S
C470        C471   1.400   1_565  A
C471        C472   1.395       .  A
C471        H476   1.084       .  S
C472        C473   1.411   1_545  A
C472        H477   1.080       .  S
C473        C474   1.411       .  A
C474        H478   1.079       .  S
C479        C480   1.408       .  A
C479        C484   1.407       .  A
C479        H485   1.083       .  S
C480        C481   1.404   1_565  A
C481        C482   1.390       .  A
C481        H486   1.083       .  S
C482        C483   1.404   1_545  A
C482        H487   1.084       .  S
C483        C484   1.404       .  A
C484        H488   1.083       .  S
C489        C490   1.407   1_565  A
C489        C494   1.403       .  A
C489        H495   1.083       .  S
C490        C491   1.405       .  A
C491        C492   1.394       .  A
C491        H496   1.083       .  S
C492        C493   1.405       .  A
C492        H497   1.083       .  S
C493        C494   1.405   1_545  A
C494        H498   1.081       .  S
C499        C500   1.408   1_565  A
C499        C504   1.405       .  A
C499        H505   1.083       .  S
C500        C501   1.406       .  A
C501        C502   1.395       .  A
C501        H506   1.083       .  S
C502        C503   1.405       .  A
C502        H507   1.083       .  S
C503        C504   1.405   1_545  A
C504        H508   1.083       .  S
C509        C510   1.407       .  A
C509        C514   1.400       .  A
C509        H515   1.083       .  S
C510        C511   1.405   1_655  A
C511        C512   1.395       .  A
C511        H516   1.083       .  S
C512        C513   1.405       .  A
C512        H517   1.083       .  S
C513        C514   1.405   1_455  A
C514        H518   1.083       .  S
C519        C520   1.403   1_455  A
C519        C524   1.394       .  A
C519        H525   1.083       .  S
C520        C521   1.407       .  A
C521        C522   1.400       .  A
C521        H526   1.083       .  S
C522        C523   1.404   1_655  A
C522        H527   1.082       .  S
C523        C524   1.408       .  A
C524        H528   1.082       .  S
C529        C530   1.407   1_455  A
C529        C534   1.399       .  A
C529        H535   1.083       .  S
C530        C531   1.403       .  A
C531        C532   1.392       .  A
C531        H536   1.083       .  S
C532        C533   1.404       .  A
C532        H537   1.083       .  S
C533        C534   1.404   1_655  A
C534        H538   1.083       .  S
C539        C540   1.405       .  A
C539        C544   1.398       .  A
C539        H545   1.083       .  S
C540        C541   1.405   1_655  A
C541        C542   1.398       .  A
C541        H546   1.083       .  S
C542        C543   1.404   1_455  A
C542        H547   1.080       .  S
C543        C544   1.408       .  A
C544        H548   1.082       .  S
C549        C550   1.404       .  A
C549        C554   1.388       .  A
C549        H555   1.083       .  S
C550        C551   1.408       .  A
C551        C552   1.408       .  A
C551        H556   1.083       .  S
C552        C553   1.407       .  A
C552        H557   1.083       .  S
C553        C554   1.403       .  A
C554        H558   1.083       .  S
C559        C560   1.410       .  A
C559        C564   1.407       .  A
C559        H565   1.082       .  S
C560        C561   1.402       .  A
C561        C562   1.390       .  A
C561        H566   1.083       .  S
C562        C563   1.406       .  A
C562        H567   1.083       .  S
C563        C564   1.403       .  A
C564        H568   1.083       .  S
C569        C570   1.407       .  A
C569        C574   1.407       .  A
C569        H575   1.083       .  S
C570        C571   1.405       .  A
C571        C572   1.389       .  A
C571        H576   1.083       .  S
C572        C573   1.402       .  A
C572        H577   1.083       .  S
C573        C574   1.406       .  A
C574        H578   1.083       .  S
C579        C580   1.402       .  A
C579        C584   1.403       .  A
C579        H585   1.083       .  S
C580        C581   1.398       .  A
C581        C582   1.393       .  A
C581        H586   1.084       .  S
C582        C583   1.409       .  A
C582        H587   1.082       .  S
C583        C584   1.409       .  A
C584        H588   1.081       .  S
