geometry optimzed in LAMMPS
_audit_creation_date              2020-11-30 
_audit_creation_method            'lammps2cif' 
_symmetry_space_group_name_H-M    'P1' 
_symmetry_Int_Tables_number       1 
_symmetry_cell_setting            triclinic 
loop_ 
_symmetry_equiv_pos_as_xyz 
  x,y,z 
_cell_length_a                    27.588796947256412 
_cell_length_b                    24.46089267100319 
_cell_length_c                    27.979166007283954 
_cell_angle_alpha                 90.43979394569706 
_cell_angle_beta                  90.22742078449586 
_cell_angle_gamma                 89.12870049317448 
loop_ 
_atom_site_label 
_atom_site_type_symbol 
_atom_site_fract_x 
_atom_site_fract_y 
_atom_site_fract_z 
_atom_site_charge 
C1          C  0.55698949  0.16010289  0.04565235     0.76640
Tb2        Tb  0.01331901  0.42580622  0.50560601     1.80740
O3          O  0.57319412  0.12701568  0.01466843    -0.51380
O4          O  0.48729071  0.13997715  0.44396790    -0.58830
C5          C  0.06027522  0.50789027  0.08460857     0.92450
O6          O  0.99220947  0.34956202  0.05180704    -0.58360
Tb7        Tb  0.50208432  0.07678776  0.00359915     1.78060
O8          O  0.03310944  0.35587219  0.45160369    -0.58860
O9          O  0.47434368  0.03821588  0.43040051    -0.77660
O10         O  0.02675987  0.04366008  0.07927290    -0.76980
O11         O  0.43538878  0.02745236  0.02826973    -0.62250
C12         C  0.45269647  0.49337029  0.42237869     0.92040
O13         O  0.04991868  0.46476866  0.43694114    -0.74190
C14         C  0.07340350  0.34250377  0.46951305     0.75490
C15         C  0.44476598  0.15395850  0.45579004     0.76470
O16         O  0.51247155  0.15316201  0.05422031    -0.59440
O17         O  0.43186841  0.13268767  0.49458350    -0.51390
O18         O  0.46800238  0.46216854  0.07114723    -0.77450
O19         O  0.07310169  0.04303002  0.46883856    -0.61450
C20         C  0.07639517  0.00689504  0.43648258     0.90260
C21         C  0.43397045  0.99681578  0.06432553     0.91490
C22         C  0.94790642  0.34941806  0.03986380     0.75830
O23         O  0.08291200  0.36824606  0.50764640    -0.50780
O24         O  0.93739877  0.38542974  0.00949974    -0.51930
O25         O  0.45508680  0.45352076  0.45082472    -0.64780
O26         O  0.06991786  0.47297135  0.05217259    -0.65920
C27         C  0.29561327  0.09496559  0.19132768     0.76640
Tb28       Tb  0.25044453  0.33763291  0.25089695     1.80740
O29         O  0.30875373  0.10549790  0.23368248    -0.51380
O30         O  0.24957870  0.11381341  0.30908266    -0.58830
C31         C  0.30977542  0.26546318  0.16758705     0.92450
O32         O  0.22500636  0.40741780  0.19913657    -0.58360
Tb33       Tb  0.25349374  0.17839259  0.24710097     1.78060
O34         O  0.27991892  0.41758859  0.28844978    -0.58860
O35         O  0.22620208  0.21833316  0.32058814    -0.77660
O36         O  0.29928000  0.21843651  0.18412971    -0.76980
O37         O  0.18409559  0.21844451  0.21514216    -0.62250
C38         C  0.19779070  0.25935754  0.32716928     0.92040
O39         O  0.29347533  0.29187988  0.31445044    -0.74190
C40         C  0.32447197  0.40653916  0.28368433     0.75490
C41         C  0.20659366  0.09878883  0.30077683     0.76470
O42         O  0.25857772  0.12232845  0.17873603    -0.59440
O43         O  0.18861240  0.12051124  0.26366708    -0.51390
O44         O  0.21171522  0.29512634  0.18407854    -0.77450
O45         O  0.32207886  0.22486133  0.27043143    -0.61450
C46         C  0.32261588  0.25128472  0.30904970     0.90260
C47         C  0.18255488  0.25511882  0.18363074     0.91490
C48         C  0.18812861  0.42297684  0.22217437     0.75830
O49         O  0.33186007  0.36296367  0.26033803    -0.50780
O50         O  0.18515895  0.40054484  0.26256850    -0.51930
O51         O  0.19103686  0.29552653  0.29569175    -0.64780
O52         O  0.29444744  0.31023075  0.18520173    -0.65920
C53         C  0.16686224  0.23169617  0.09907953    -0.12080
C54         C  0.14799281  0.24680628  0.14383410     0.04920
C55         C  0.09752741  0.24250738  0.15171854    -0.07370
C56         C  0.06821736  0.21989339  0.11595480    -0.08110
C57         C  0.08774599  0.19868847  0.07336152    -0.02670
C58         C  0.13764117  0.20726215  0.06360043     0.04150
N59         N  0.15995286  0.18925430  0.01959762     0.66660
H60         H  0.20544762  0.23543863  0.09303942     0.15560
H61         H  0.53036067  0.21381265  0.12384593     0.15270
N62         N  0.07511826  0.25871052  0.19605814     0.74360
O63         O  0.13700058  0.19194278  0.98062894    -0.39090
O64         O  0.20465943  0.17759364  0.01847688    -0.39030
O65         O  0.03361878  0.28122816  0.19554054    -0.39620
O66         O  0.09255141  0.24312579  0.23551003    -0.39800
C67         C  0.15984210  0.02734713  0.41201658    -0.12080
C68         C  0.11214062  0.01620532  0.39817812     0.04920
C69         C  0.09805278  0.02582094  0.35041110    -0.07370
C70         C  0.13137691  0.04764809  0.31815652    -0.08110
C71         C  0.17783318  0.06369069  0.33314878    -0.02670
C72         C  0.19236463  0.05208958  0.38072823     0.04150
N73         N  0.23761795  0.07007733  0.39990386     0.66660
H74         H  0.17055776  0.52143806  0.44897787     0.15560
H75         H  0.11911149  0.05675933  0.28218064     0.15270
N76         N  0.04850399  0.02203595  0.33589073     0.74360
O77         O  0.26347042  0.03688555  0.42356832    -0.39090
O78         O  0.24456500  0.12068553  0.40505273    -0.39030
O79         O  0.01953971  0.06034219  0.34715285    -0.39740
O80         O  0.03771874  0.99114518  0.30131758    -0.39800
C81         C  0.06998906  0.46668889  0.16381107    -0.12080
C82         C  0.08754280  0.50288068  0.12975588     0.04920
C83         C  0.13526641  0.52198459  0.13417560    -0.07370
C84         C  0.16587016  0.50002869  0.16963433    -0.08110
C85         C  0.15022941  0.45828919  0.19998902    -0.02670
C86         C  0.10049303  0.44353250  0.19886918     0.04150
N87         N  0.08088724  0.40162443  0.22886478     0.66660
H88         H  0.03355876  0.45161771  0.15967393     0.15560
H89         H  0.20354274  0.51199757  0.17050337     0.15270
N90         N  0.15412733  0.06131422  0.10159930     0.74360
O91         O  0.03627285  0.40242066  0.23875757    -0.39090
O92         O  0.10523257  0.35910370  0.23843035    -0.39030
O93         O  0.17917626  0.10025871  0.11733385    -0.39740
O94         O  0.14910240  0.05519586  0.05703344    -0.39800
C95         C  0.36078029  0.02454804  0.17734934    -0.12080
C96         C  0.32410829  0.05889809  0.15847982     0.04920
C97         C  0.31914457  0.06230491  0.10823119    -0.07370
C98         C  0.35197979  0.03417824  0.07884608    -0.08110
C99         C  0.39227184  0.00554514  0.09751630    -0.02670
C100        C  0.39476266  0.99745816  0.14750255     0.04150
N101        N  0.43190750  0.96380614  0.16870952     0.66660
H102        H  0.36405699  0.02020874  0.21575598     0.15560
H103        H  0.34858797  0.03974392  0.04054626     0.15270
N104        N  0.28499477  0.09879355  0.08581445     0.74360
O105        O  0.94989989  0.97710088  0.20862377    -0.39090
O106        O  0.93990022  0.41625405  0.15240652    -0.39030
O107        O  0.28934938  0.14970534  0.09171785    -0.39740
O108        O  0.26046896  0.08177670  0.05069267    -0.39800
C109        C  0.35152483  0.48788484  0.33056241    -0.12080
C110        C  0.36338427  0.43790459  0.30787579     0.04920
C111        C  0.40953413  0.41397137  0.31651032    -0.07370
C112        C  0.43982734  0.43663776  0.35129789    -0.08110
C113        C  0.42581649  0.48318891  0.37759139    -0.02670
C114        C  0.38209930  0.51068460  0.36567766     0.04150
N115        N  0.36610364  0.05866585  0.39122229     0.66660
H116        H  0.31644710  0.00689760  0.32395909     0.15560
H117        H  0.47367927  0.41575507  0.35989127     0.15270
N118        N  0.42473491  0.36422422  0.29336772     0.74360
O119        O  0.34247261  0.09550608  0.36955336    -0.39090
O120        O  0.36922504  0.06092339  0.43620228    -0.39030
O121        O  0.43060404  0.36330585  0.24868406    -0.39740
O122        O  0.44021314  0.32454661  0.31796962    -0.39800
C123        C  0.42688207  0.18148232  0.37467715    -0.12080
C124        C  0.41298439  0.18540681  0.42254867     0.04920
C125        C  0.36812173  0.21196455  0.43370263    -0.07370
C126        C  0.34058448  0.23570884  0.39605963    -0.08110
C127        C  0.35517562  0.23126411  0.34800953    -0.02670
C128        C  0.39875557  0.20227597  0.33779127     0.04150
N129        N  0.41480301  0.19022289  0.29028022     0.66660
H130        H  0.45889553  0.15791848  0.36471319     0.15560
H131        H  0.30628234  0.25543865  0.40398811     0.15270
N132        N  0.34886331  0.21390694  0.48152617     0.74360
O133        O  0.39445827  0.15231022  0.26731265    -0.39090
O134        O  0.45759358  0.20237306  0.27908656    -0.39030
O135        O  0.37647648  0.21189079  0.01745155    -0.39740
O136        O  0.30404694  0.22184960  0.48813847    -0.39800
C137        C  0.12449365  0.24701934  0.37550619    -0.12080
C138        C  0.17150267  0.26724742  0.37240852     0.04920
C139        C  0.18784065  0.30459898  0.40755985    -0.07370
C140        C  0.15670868  0.32141148  0.44438047    -0.08110
C141        C  0.10807058  0.30626840  0.44413665    -0.02670
C142        C  0.09215755  0.26687401  0.41051263     0.04150
N143        N  0.04303790  0.24837498  0.41033248     0.66660
H144        H  0.11188689  0.21864679  0.34839490     0.15560
H145        H  0.16877323  0.35270141  0.46917779     0.15270
N146        N  0.23300951  0.33197721  0.40296442     0.74360
O147        O  0.02390042  0.23178536  0.37196770    -0.39090
O148        O  0.01934237  0.24612509  0.44875715    -0.39030
O149        O  0.23910282  0.36308079  0.36783654    -0.39740
O150        O  0.25933623  0.33816115  0.43949568    -0.39800
C151        C  0.42634260  0.28040760  0.10006697    -0.12080
C152        C  0.41114094  0.31517765  0.06316876     0.04920
C153        C  0.36075865  0.32374127  0.05548233    -0.07370
C154        C  0.32752547  0.30171198  0.08765966    -0.08110
C155        C  0.34324809  0.27100510  0.12702248    -0.02670
C156        C  0.39310010  0.25921984  0.13246642     0.04150
N157        N  0.41125760  0.23519062  0.17535603     0.66660
H158        H  0.96465155  0.27453170  0.10703131     0.15560
H159        H  0.28922749  0.31105530  0.08342940     0.15270
N160        N  0.34274511  0.35599515  0.01644561     0.74360
O161        O  0.44426200  0.19895459  0.17330879    -0.39090
O162        O  0.40312839  0.25952548  0.21442592    -0.39030
O163        O  0.35657846  0.34551876  0.47435278    -0.39740
O164        O  0.30831794  0.38978345  0.02300268    -0.39800
C165        C  0.55698856  0.16009971  0.54565434     0.76640
Tb166      Tb  0.01331692  0.42580680  0.00560435     1.80740
O167        O  0.57319336  0.12701174  0.51467104    -0.51380
O168        O  0.48729158  0.13997784  0.94396648    -0.58830
C169        C  0.06027366  0.50789086  0.58461122     0.92450
O170        O  0.99221002  0.34956092  0.55180704    -0.58360
Tb171      Tb  0.50208268  0.07678612  0.50359983     1.78060
O172        O  0.03310723  0.35587667  0.95159814    -0.58860
O173        O  0.47434605  0.03821603  0.93040028    -0.77660
O174        O  0.02675964  0.04366122  0.57927449    -0.76980
O175        O  0.43538802  0.02744524  0.52826416    -0.62250
C176        C  0.45269407  0.49337121  0.92237791     0.92040
O177        O  0.04991651  0.46476826  0.93693918    -0.74190
C178        C  0.07340008  0.34250497  0.96950845     0.75490
C179        C  0.44476655  0.15395833  0.95578841     0.76470
O180        O  0.51247022  0.15315995  0.55422149    -0.59440
O181        O  0.43186916  0.13268738  0.99458184    -0.51390
O182        O  0.46800435  0.46216835  0.57114890    -0.77450
O183        O  0.07309962  0.04302958  0.96883516    -0.61450
C184        C  0.07639201  0.00689428  0.93647929     0.90260
C185        C  0.43396935  0.99681309  0.56432267     0.91490
C186        C  0.94790656  0.34941950  0.53986509     0.75830
O187        O  0.08290806  0.36824397  0.00764362    -0.50780
O188        O  0.93739917  0.38543308  0.50950263    -0.51930
O189        O  0.45508272  0.45352246  0.95082485    -0.64780
O190        O  0.06991801  0.47297274  0.55217505    -0.65920
C191        C  0.29561031  0.09496647  0.69132326     0.76640
Tb192      Tb  0.25044322  0.33763226  0.75089698     1.80740
O193        O  0.30874876  0.10549588  0.73367918    -0.51380
O194        O  0.24957411  0.11381111  0.80907771    -0.58830
C195        C  0.30977661  0.26546417  0.66758790     0.92450
O196        O  0.22499832  0.40741182  0.69913467    -0.58360
Tb197      Tb  0.25349059  0.17839235  0.74709781     1.78060
O198        O  0.27991750  0.41758852  0.78844906    -0.58860
O199        O  0.22619988  0.21833139  0.82058590    -0.77660
O200        O  0.29928031  0.21843728  0.68412952    -0.76980
O201        O  0.18409429  0.21844718  0.71513699    -0.62250
C202        C  0.19778834  0.25935560  0.82716675     0.92040
O203        O  0.29347379  0.29187718  0.81444957    -0.74190
C204        C  0.32447053  0.40653927  0.78368342     0.75490
C205        C  0.20658860  0.09878822  0.80077190     0.76470
O206        O  0.25857626  0.12233148  0.67873090    -0.59440
O207        O  0.18860756  0.12051259  0.76366289    -0.51390
O208        O  0.21171733  0.29512861  0.68407559    -0.77450
O209        O  0.32207654  0.22485840  0.77043015    -0.61450
C210        C  0.32261402  0.25128173  0.80904845     0.90260
C211        C  0.18255636  0.25512184  0.68362568     0.91490
C212        C  0.18812435  0.42297464  0.72217646     0.75830
O213        O  0.33185866  0.36296378  0.76033719    -0.50780
O214        O  0.18516019  0.40054708  0.76257294    -0.51930
O215        O  0.19103437  0.29552387  0.79568872    -0.64780
O216        O  0.29444832  0.31023156  0.68520271    -0.65920
C217        C  0.16686648  0.23169507  0.59907480    -0.12080
C218        C  0.14799606  0.24681133  0.64382739     0.04920
C219        C  0.09752995  0.24251974  0.65170956    -0.07370
C220        C  0.06821986  0.21990314  0.61594714    -0.08110
C221        C  0.08774897  0.19869143  0.57335653    -0.02670
C222        C  0.13764495  0.20726104  0.56359604     0.04150
N223        N  0.15995665  0.18924975  0.51959418     0.66660
H224        H  0.20545248  0.23543327  0.59303621     0.15560
H225        H  0.53036014  0.21380963  0.62384802     0.15270
N226        N  0.07512037  0.25873279  0.69604617     0.74360
O227        O  0.13700418  0.19193457  0.48062543    -0.39090
O228        O  0.20466366  0.17759148  0.51847357    -0.39030
O229        O  0.03362346  0.28125646  0.69552392    -0.39620
O230        O  0.09254909  0.24314979  0.73550045    -0.39800
C231        C  0.15983878  0.02734200  0.91201021    -0.12080
C232        C  0.11213608  0.01620418  0.89817354     0.04920
C233        C  0.09804626  0.02582400  0.85040770    -0.07370
C234        C  0.13136984  0.04765121  0.81815255    -0.08110
C235        C  0.17782771  0.06368982  0.83314337    -0.02670
C236        C  0.19236090  0.05208453  0.88072152     0.04150
N237        N  0.23761583  0.07006859  0.89989599     0.66660
H238        H  0.17055888  0.52142598  0.94897197     0.15560
H239        H  0.11910302  0.05676569  0.78217777     0.15270
N240        N  0.04849649  0.02204329  0.83588966     0.74360
O241        O  0.26346877  0.03687327  0.92355621    -0.39090
O242        O  0.24456412  0.12067602  0.90504916    -0.39030
O243        O  0.01953550  0.06035243  0.84715250    -0.39740
O244        O  0.03770742  0.99115293  0.80131744    -0.39800
C245        C  0.06998471  0.46669262  0.66381562    -0.12080
C246        C  0.08754044  0.50288158  0.62975910     0.04920
C247        C  0.13526471  0.52198314  0.63417871    -0.07370
C248        C  0.16586713  0.50002693  0.66963823    -0.08110
C249        C  0.15022477  0.45828910  0.69999395    -0.02670
C250        C  0.10048709  0.44353601  0.69887535     0.04150
N251        N  0.08087651  0.40163471  0.72887579     0.66660
H252        H  0.03355333  0.45162449  0.65967885     0.15560
H253        H  0.20354029  0.51199368  0.67050679     0.15270
N254        N  0.15412924  0.06131148  0.60159851     0.74360
O255        O  0.03625980  0.40243053  0.73875861    -0.39090
O256        O  0.10522306  0.35912129  0.73846239    -0.39030
O257        O  0.17917911  0.10025606  0.61733129    -0.39740
O258        O  0.14910461  0.05519037  0.55703290    -0.39800
C259        C  0.36077584  0.02454698  0.67734519    -0.12080
C260        C  0.32410609  0.05889979  0.65847533     0.04920
C261        C  0.31914529  0.06230979  0.60822669    -0.07370
C262        C  0.35198082  0.03418304  0.57884202    -0.08110
C263        C  0.39227058  0.00554621  0.59751285    -0.02670
C264        C  0.39475859  0.99745675  0.64749897     0.04150
N265        N  0.43190074  0.96380157  0.66870666     0.66660
H266        H  0.36405030  0.02020540  0.71575179     0.15560
H267        H  0.34859067  0.03975078  0.54054232     0.15270
N268        N  0.28499778  0.09880098  0.58580984     0.74360
O269        O  0.94989757  0.97709593  0.70862537    -0.39090
O270        O  0.93989271  0.41625043  0.65240322    -0.39030
O271        O  0.28935395  0.14971229  0.59171525    -0.39740
O272        O  0.26047277  0.08178674  0.55068655    -0.39800
C273        C  0.35152400  0.48788592  0.83055993    -0.12080
C274        C  0.36338287  0.43790471  0.80787469     0.04920
C275        C  0.40953208  0.41397063  0.81651055    -0.07370
C276        C  0.43982514  0.43663720  0.85129807    -0.08110
C277        C  0.42581477  0.48318947  0.87759029    -0.02670
C278        C  0.38209838  0.51068596  0.86567514     0.04150
N279        N  0.36610141  0.05866787  0.89122371     0.66660
H280        H  0.31644554  0.00689868  0.82396052     0.15560
H281        H  0.47367641  0.41575373  0.85989254     0.15270
N282        N  0.42473205  0.36422225  0.79336959     0.74360
O283        O  0.34247035  0.09550752  0.86955407    -0.39090
O284        O  0.36922242  0.06092625  0.93620370    -0.39030
O285        O  0.43060573  0.36330328  0.74868654    -0.39740
O286        O  0.44020508  0.32454352  0.81797313    -0.39800
C287        C  0.42688118  0.18147979  0.87467530    -0.12080
C288        C  0.41298441  0.18540572  0.92254695     0.04920
C289        C  0.36812192  0.21196363  0.93370116    -0.07370
C290        C  0.34058416  0.23570725  0.89605822    -0.08110
C291        C  0.35517422  0.23126096  0.84800791    -0.02670
C292        C  0.39875368  0.20227176  0.83778939     0.04150
N293        N  0.41479951  0.19021559  0.79027834     0.66660
H294        H  0.45889453  0.15791575  0.86471145     0.15560
H295        H  0.30628238  0.25543764  0.90398700     0.15270
N296        N  0.34886407  0.21390673  0.98152492     0.74360
O297        O  0.39445192  0.15230379  0.76731221    -0.39090
O298        O  0.45759078  0.20236158  0.77908365    -0.39030
O299        O  0.37647532  0.21189090  0.51745309    -0.39740
O300        O  0.30404773  0.22184899  0.98813767    -0.39800
C301        C  0.12448988  0.24701974  0.87550181    -0.12080
C302        C  0.17149975  0.26724575  0.87240564     0.04920
C303        C  0.18783782  0.30459660  0.90755752    -0.07370
C304        C  0.15670524  0.32141019  0.94437729    -0.08110
C305        C  0.10806663  0.30626915  0.94413194    -0.02670
C306        C  0.09215327  0.26687584  0.91050715     0.04150
N307        N  0.04303263  0.24838017  0.91032444     0.66660
H308        H  0.11188287  0.21864810  0.84838990     0.15560
H309        H  0.16877003  0.35269944  0.96917515     0.15270
N310        N  0.23300751  0.33197338  0.90296334     0.74360
O311        O  0.02389555  0.23179464  0.87195812    -0.39090
O312        O  0.01933508  0.24613090  0.94874792    -0.39030
O313        O  0.23910237  0.36307710  0.86783584    -0.39740
O314        O  0.25933330  0.33815648  0.93949537    -0.39800
C315        C  0.42634469  0.28040837  0.60006904    -0.12080
C316        C  0.41114338  0.31517813  0.56317049     0.04920
C317        C  0.36076118  0.32374188  0.55548367    -0.07370
C318        C  0.32752772  0.30171307  0.58766091    -0.08110
C319        C  0.34324997  0.27100644  0.62702398    -0.02670
C320        C  0.39310188  0.25922100  0.63246839     0.04150
N321        N  0.41125889  0.23519122  0.67535796     0.66660
H322        H  0.96465099  0.27453485  0.60703329     0.15560
H323        H  0.28922978  0.31105639  0.58343025     0.15270
N324        N  0.34274800  0.35599535  0.51644654     0.74360
O325        O  0.44426358  0.19895554  0.67331073    -0.39090
O326        O  0.40312842  0.25952484  0.71442819    -0.39030
O327        O  0.35657526  0.34551906  0.97435166    -0.39740
O328        O  0.30832094  0.38978392  0.52300311    -0.39800
C329        C  0.55697698  0.66008014  0.04567957     0.76640
Tb330      Tb  0.01333999  0.92580671  0.50562200     1.80740
O331        O  0.57319009  0.62699053  0.01470178    -0.51380
O332        O  0.48730002  0.63998298  0.44397068    -0.58830
C333        C  0.06029083  0.00790799  0.08461555     0.92450
O334        O  0.99222282  0.84956139  0.05182188    -0.58360
Tb335      Tb  0.50207477  0.57678243  0.00359805     1.78060
O336        O  0.03313350  0.85586508  0.45162923    -0.58860
O337        O  0.47433792  0.53822373  0.43039548    -0.77660
O338        O  0.02674333  0.54364184  0.07926958    -0.76980
O339        O  0.43537042  0.52745029  0.02824733    -0.62250
C340        C  0.45271158  0.99335614  0.42238442     0.92040
O341        O  0.04993171  0.96476473  0.43695208    -0.74190
C342        C  0.07343053  0.84250617  0.46953691     0.75490
C343        C  0.44477561  0.65396992  0.45578932     0.76470
O344        O  0.51245382  0.65314904  0.05422830    -0.59440
O345        O  0.43187065  0.63269802  0.49457985    -0.51390
O346        O  0.46803245  0.96217310  0.07116656    -0.77450
O347        O  0.07308940  0.54303403  0.46882850    -0.61450
C348        C  0.07638375  0.50689811  0.43647333     0.90260
C349        C  0.43394436  0.49681568  0.06430338     0.91490
C350        C  0.94791901  0.84942643  0.03988062     0.75830
O351        O  0.08293889  0.86825579  0.50766650    -0.50780
O352        O  0.93741503  0.88544326  0.00952014    -0.51930
O353        O  0.45511224  0.95350612  0.45082949    -0.64780
O354        O  0.06993464  0.97298560  0.05218252    -0.65920
C355        C  0.29559374  0.59497873  0.19131068     0.76640
Tb356      Tb  0.25045008  0.83763736  0.25089516     1.80740
O357        O  0.30872888  0.60548335  0.23367247    -0.51380
O358        O  0.24958013  0.61381615  0.30908802    -0.58830
C359        C  0.30977284  0.76546817  0.16758638     0.92450
O360        O  0.22504571  0.90746730  0.19916323    -0.58360
Tb361      Tb  0.25349529  0.67839790  0.24710752     1.78060
O362        O  0.27993586  0.91758918  0.28844335    -0.58860
O363        O  0.22621698  0.71834193  0.32059828    -0.77660
O364        O  0.29930008  0.71844397  0.18414919    -0.76980
O365        O  0.18408607  0.71845645  0.21518361    -0.62250
C366        C  0.19781008  0.75936943  0.32718590     0.92040
O367        O  0.29349183  0.79188627  0.31444334    -0.74190
C368        C  0.32448769  0.90652912  0.28368352     0.75490
C369        C  0.20659581  0.59879013  0.30077892     0.76470
O370        O  0.25857083  0.62236574  0.17872118    -0.59440
O371        O  0.18861671  0.62051217  0.26366811    -0.51390
O372        O  0.21170499  0.79511929  0.18409001    -0.77450
O373        O  0.32208709  0.72485744  0.27043012    -0.61450
C374        C  0.32262962  0.75128795  0.30904436     0.90260
C375        C  0.18253829  0.75511738  0.18366205     0.91490
C376        C  0.18814578  0.92299556  0.22218170     0.75830
O377        O  0.33187064  0.86294814  0.26034320    -0.50780
O378        O  0.18514617  0.90052505  0.26255686    -0.51930
O379        O  0.19105368  0.79554304  0.29571250    -0.64780
O380        O  0.29442008  0.81023539  0.18518040    -0.65920
C381        C  0.16683582  0.73170743  0.09911125    -0.12080
C382        C  0.14796870  0.74678766  0.14387403     0.04920
C383        C  0.09750730  0.74244618  0.15176909    -0.07370
C384        C  0.06820124  0.71983638  0.11600051    -0.08110
C385        C  0.08773090  0.69866388  0.07339599    -0.02670
C386        C  0.13762138  0.70726575  0.06363086     0.04150
N387        N  0.15993630  0.68928369  0.01962130     0.66660
H388        H  0.20541758  0.73547874  0.09306499     0.15560
H389        H  0.53034564  0.71371656  0.12390489     0.15270
N390        N  0.07509690  0.75860519  0.19612047     0.74360
O391        O  0.13696958  0.69193834  0.98065933    -0.39090
O392        O  0.20465323  0.67767873  0.01848716    -0.39030
O393        O  0.03358580  0.78109558  0.19562034    -0.39620
O394        O  0.09254553  0.74301060  0.23556279    -0.39800
C395        C  0.15983383  0.52734397  0.41201265    -0.12080
C396        C  0.11213217  0.51620712  0.39817096     0.04920
C397        C  0.09804770  0.52582806  0.35040365    -0.07370
C398        C  0.13137633  0.54765190  0.31815179    -0.08110
C399        C  0.17783253  0.56369075  0.33314772    -0.02670
C400        C  0.19235966  0.55208705  0.38072781     0.04150
N401        N  0.23761081  0.57007509  0.39990819     0.66660
H402        H  0.17056884  0.02144397  0.44898140     0.15560
H403        H  0.11911373  0.55676656  0.28217566     0.15270
N404        N  0.04849839  0.52205583  0.33588133     0.74360
O405        O  0.26346167  0.53688313  0.42357415    -0.39090
O406        O  0.24455598  0.62068334  0.40505958    -0.39030
O407        O  0.01953700  0.56035778  0.34716147    -0.39740
O408        O  0.03771123  0.49118967  0.30129197    -0.39800
C409        C  0.07000895  0.96669084  0.16380943    -0.12080
C410        C  0.08755520  0.00290006  0.12976462     0.04920
C411        C  0.13527491  0.02201594  0.13419049    -0.07370
C412        C  0.16588284  0.00005724  0.16964537    -0.08110
C413        C  0.15024883  0.95830382  0.19998858    -0.02670
C414        C  0.10051867  0.94353081  0.19885893     0.04150
N415        N  0.08093481  0.90158489  0.22882458     0.66660
H416        H  0.03358477  0.95160387  0.15966614     0.15560
H417        H  0.20355250  0.01203636  0.17052020     0.15270
N418        N  0.15412652  0.56126889  0.10157573     0.74360
O419        O  0.03633255  0.90238588  0.23876926    -0.39090
O420        O  0.10527003  0.85902173  0.23827417    -0.39030
O421        O  0.17918184  0.60021235  0.11730216    -0.39740
O422        O  0.14910446  0.55513645  0.05701097    -0.39800
C423        C  0.36074303  0.52454372  0.17732305    -0.12080
C424        C  0.32408385  0.55891338  0.15845647     0.04920
C425        C  0.31913104  0.56234024  0.10820796    -0.07370
C426        C  0.35196313  0.53420998  0.07882158    -0.08110
C427        C  0.39224402  0.50555515  0.09749112    -0.02670
C428        C  0.39472430  0.49745283  0.14747578     0.04150
N429        N  0.43185946  0.46378693  0.16868224     0.66660
H430        H  0.36401192  0.52019038  0.21572900     0.15560
H431        H  0.34857879  0.53978895  0.04052276     0.15270
N432        N  0.28499679  0.59885028  0.08579446     0.74360
O433        O  0.94985711  0.47707361  0.20860408    -0.39090
O434        O  0.93994742  0.91626902  0.15243559    -0.39030
O435        O  0.28936332  0.64975791  0.09171619    -0.39740
O436        O  0.26047625  0.58185737  0.05066005    -0.39800
C437        C  0.35154332  0.98787066  0.33056277    -0.12080
C438        C  0.36340213  0.93789066  0.30787565     0.04920
C439        C  0.40955078  0.91395477  0.31651211    -0.07370
C440        C  0.43984082  0.93661699  0.35130533    -0.08110
C441        C  0.42583005  0.98316909  0.37759843    -0.02670
C442        C  0.38211544  0.01066759  0.36568101     0.04150
N443        N  0.36608872  0.55868352  0.39121891     0.66660
H444        H  0.31642726  0.50690950  0.32396079     0.15560
H445        H  0.47369217  0.91573389  0.35989996     0.15270
N446        N  0.42475607  0.86421438  0.29335991     0.74360
O447        O  0.34245697  0.59552364  0.36955066    -0.39090
O448        O  0.36921678  0.56094491  0.43619833    -0.39030
O449        O  0.43060164  0.86330065  0.24867306    -0.39740
O450        O  0.44026140  0.82454158  0.31795206    -0.39800
C451        C  0.42689343  0.68148262  0.37467381    -0.12080
C452        C  0.41300005  0.68542178  0.42254574     0.04920
C453        C  0.36814333  0.71199268  0.43369892    -0.07370
C454        C  0.34060824  0.73573607  0.39605446    -0.08110
C455        C  0.35519189  0.73127157  0.34800346    -0.02670
C456        C  0.39876453  0.70226787  0.33778604     0.04150
N457        N  0.41479756  0.69018295  0.29027579     0.66660
H458        H  0.45890182  0.65790868  0.36471200     0.15560
H459        H  0.30631178  0.75547872  0.40398298     0.15270
N460        N  0.34888795  0.71394840  0.48152338     0.74360
O461        O  0.39443208  0.65227010  0.26732694    -0.39090
O462        O  0.45759180  0.70230270  0.27906913    -0.39030
O463        O  0.37650034  0.71191980  0.01744954    -0.39740
O464        O  0.30407377  0.72190640  0.48813763    -0.39800
C465        C  0.12452289  0.74702080  0.37553322    -0.12080
C466        C  0.17152838  0.76725718  0.37242855     0.04920
C467        C  0.18786572  0.80461495  0.40757536    -0.07370
C468        C  0.15673578  0.82142525  0.44439839    -0.08110
C469        C  0.10809987  0.80627388  0.44416079    -0.02670
C470        C  0.09218820  0.76687366  0.41054143     0.04150
N471        N  0.04307216  0.74836260  0.41037112     0.66660
H472        H  0.11191715  0.71864294  0.34842576     0.15560
H473        H  0.16879872  0.85271941  0.46919237     0.15270
N474        N  0.23303167  0.83199859  0.40297443     0.74360
O475        O  0.02393386  0.73175502  0.37201268    -0.39090
O476        O  0.01938326  0.74611406  0.44879990    -0.39030
O477        O  0.23912446  0.86308954  0.36783788    -0.39740
O478        O  0.25935694  0.83819786  0.43950472    -0.39800
C479        C  0.42634648  0.78040250  0.10007263    -0.12080
C480        C  0.41115150  0.81518857  0.06318267     0.04920
C481        C  0.36077055  0.82376424  0.05549621    -0.07370
C482        C  0.32753283  0.80173266  0.08766698    -0.08110
C483        C  0.34324847  0.77101066  0.12702339    -0.02670
C484        C  0.39309794  0.75920910  0.13246404     0.04150
N485        N  0.41124820  0.73515653  0.17534594     0.66660
H486        H  0.96465208  0.77451387  0.10703452     0.15560
H487        H  0.28923652  0.81108588  0.08343718     0.15270
N488        N  0.34276278  0.85603222  0.01646578     0.74360
O489        O  0.44422272  0.69888688  0.17328627    -0.39090
O490        O  0.40314662  0.75949295  0.21442059    -0.39030
O491        O  0.35658823  0.84556004  0.47436983    -0.39740
O492        O  0.30834357  0.88982909  0.02303005    -0.39800
C493        C  0.55697945  0.66008171  0.54567701     0.76640
Tb494      Tb  0.01333759  0.92580663  0.00562049     1.80740
O495        O  0.57319208  0.62698854  0.51470189    -0.51380
O496        O  0.48730075  0.63998569  0.94397192    -0.58830
C497        C  0.06029083  0.00790944  0.58461769     0.92450
O498        O  0.99222513  0.84956156  0.55182333    -0.58360
Tb499      Tb  0.50207531  0.57678313  0.50359918     1.78060
O500        O  0.03313094  0.85586655  0.95162623    -0.58860
O501        O  0.47433695  0.53822386  0.93039412    -0.77660
O502        O  0.02674098  0.54364147  0.57927172    -0.76980
O503        O  0.43537204  0.52744868  0.52824781    -0.62250
C504        C  0.45270877  0.99335892  0.92238750     0.92040
O505        O  0.04992870  0.96476388  0.93694992    -0.74190
C506        C  0.07342717  0.84250581  0.96953469     0.75490
C507        C  0.44477545  0.65397031  0.95578948     0.76470
O508        O  0.51245586  0.65315314  0.55422555    -0.59440
O509        O  0.43186940  0.63269562  0.99457840    -0.51390
O510        O  0.46803160  0.96217144  0.57116618    -0.77450
O511        O  0.07308969  0.54303238  0.96882704    -0.61450
C512        C  0.07638258  0.50689685  0.93647138     0.90260
C513        C  0.43394623  0.49681526  0.56430462     0.91490
C514        C  0.94792126  0.84942694  0.53988222     0.75830
O515        O  0.08293518  0.86825389  0.00766516    -0.50780
O516        O  0.93741731  0.88544386  0.50952179    -0.51930
O517        O  0.45510416  0.95351217  0.95083629    -0.64780
O518        O  0.06993540  0.97298689  0.55218497    -0.65920
C519        C  0.29559553  0.59497993  0.69131171     0.76640
Tb520      Tb  0.25044929  0.83763779  0.75089670     1.80740
O521        O  0.30873036  0.60548533  0.73367345    -0.51380
O522        O  0.24957788  0.61381533  0.80908706    -0.58830
C523        C  0.30977248  0.76546986  0.66758747     0.92450
O524        O  0.22504323  0.90746555  0.69916350    -0.58360
Tb525      Tb  0.25349480  0.67839835  0.74710771     1.78060
O526        O  0.27993437  0.91758908  0.78844637    -0.58860
O527        O  0.22621650  0.71834148  0.82059880    -0.77660
O528        O  0.29929811  0.71844541  0.68414877    -0.76980
O529        O  0.18408593  0.71845731  0.71518323    -0.62250
C530        C  0.19780900  0.75936852  0.82718609     0.92040
O531        O  0.29349096  0.79188606  0.81444445    -0.74190
C532        C  0.32448630  0.90652972  0.78368618     0.75490
C533        C  0.20659370  0.59878961  0.80077687     0.76470
O534        O  0.25857205  0.62236573  0.67872191    -0.59440
O535        O  0.18861543  0.62051271  0.76366614    -0.51390
O536        O  0.21170494  0.79512070  0.68409065    -0.77450
O537        O  0.32208658  0.72485730  0.77043122    -0.61450
C538        C  0.32262906  0.75128807  0.80904532     0.90260
C539        C  0.18253868  0.75511839  0.68366176     0.91490
C540        C  0.18814487  0.92299597  0.72218334     0.75830
O541        O  0.33186960  0.86294947  0.76034495    -0.50780
O542        O  0.18514697  0.90052749  0.76255951    -0.51930
O543        O  0.19105259  0.79554200  0.79571259    -0.64780
O544        O  0.29442134  0.81023702  0.68518295    -0.65920
C545        C  0.16683709  0.73170536  0.59911138    -0.12080
C546        C  0.14796971  0.74678881  0.64387324     0.04920
C547        C  0.09750809  0.74245005  0.65176769    -0.07370
C548        C  0.06820191  0.71983840  0.61600006    -0.08110
C549        C  0.08773157  0.69866295  0.57339661    -0.02670
C550        C  0.13762230  0.70726327  0.56363146     0.04150
N551        N  0.15993693  0.68927986  0.51962214     0.66660
H552        H  0.20541906  0.73547498  0.59306549     0.15560
H553        H  0.53034780  0.71373170  0.62389581     0.15270
N554        N  0.07509770  0.75861373  0.69611776     0.74360
O555        O  0.13697021  0.69193443  0.48066016    -0.39090
O556        O  0.20465386  0.67767498  0.51848794    -0.39030
O557        O  0.03358773  0.78110675  0.69561569    -0.39620
O558        O  0.09254486  0.74302072  0.73556119    -0.39800
C559        C  0.15983313  0.52733650  0.91200782    -0.12080
C560        C  0.11212984  0.51620553  0.89816799     0.04920
C561        C  0.09804324  0.52583231  0.85040226    -0.07370
C562        C  0.13137139  0.54765650  0.81815012    -0.08110
C563        C  0.17782975  0.56368950  0.83314455    -0.02670
C564        C  0.19235898  0.55207924  0.88072280     0.04150
N565        N  0.23761307  0.57005999  0.89990150     0.66660
H566        H  0.17056707  0.02143584  0.94897423     0.15560
H567        H  0.11910714  0.55677586  0.78217546     0.15270
N568        N  0.04849283  0.52206540  0.83588254     0.74360
O569        O  0.26346462  0.53686100  0.92355928    -0.39090
O570        O  0.24456103  0.62066670  0.90506107    -0.39030
O571        O  0.01953595  0.56037240  0.84716090    -0.39740
O572        O  0.03770067  0.49119662  0.80129656    -0.39800
C573        C  0.07000795  0.96669500  0.66381285    -0.12080
C574        C  0.08755509  0.00290225  0.62976687     0.04920
C575        C  0.13527557  0.02201591  0.63419153    -0.07370
C576        C  0.16588308  0.00005720  0.66964667    -0.08110
C577        C  0.15024814  0.95830527  0.69999103    -0.02670
C578        C  0.10051729  0.94353445  0.69886256     0.04150
N579        N  0.08093176  0.90159093  0.72882997     0.66660
H580        H  0.03358312  0.95160977  0.65967028     0.15560
H581        H  0.20355320  0.01203464  0.67052057     0.15270
N582        N  0.15412690  0.56126530  0.60157798     0.74360
O583        O  0.03632881  0.90239218  0.73877166    -0.39090
O584        O  0.10526701  0.85902968  0.73828585    -0.39030
O585        O  0.17918445  0.60020735  0.61730357    -0.39740
O586        O  0.14910455  0.55513207  0.55701333    -0.39800
C587        C  0.36074485  0.52454463  0.67732439    -0.12080
C588        C  0.32408625  0.55891496  0.65845771     0.04920
C589        C  0.31913398  0.56234242  0.60820923    -0.07370
C590        C  0.35196580  0.53421175  0.57882292    -0.08110
C591        C  0.39224610  0.50555586  0.59749251    -0.02670
C592        C  0.39472588  0.49745313  0.64747719     0.04150
N593        N  0.43185993  0.46378572  0.66868373     0.66660
H594        H  0.36401322  0.52019089  0.71573034     0.15560
H595        H  0.34858166  0.53979105  0.54052414     0.15270
N596        N  0.28500044  0.59885329  0.58579571     0.74360
O597        O  0.94984847  0.47706641  0.70860390    -0.39090
O598        O  0.93994559  0.91626690  0.65243480    -0.39030
O599        O  0.28936746  0.64976077  0.59171809    -0.39740
O600        O  0.26047995  0.58186120  0.55066097    -0.39800
C601        C  0.35154157  0.98787166  0.83056501    -0.12080
C602        C  0.36340049  0.93789124  0.80787874     0.04920
C603        C  0.40954886  0.91395513  0.81651636    -0.07370
C604        C  0.43983854  0.93661786  0.85130967    -0.08110
C605        C  0.42582776  0.98317076  0.87760153    -0.02670
C606        C  0.38211332  0.01066909  0.86568329     0.04150
N607        N  0.36608841  0.55868610  0.89121495     0.66660
H608        H  0.31642691  0.50691122  0.82395725     0.15560
H609        H  0.47368963  0.91573473  0.85990525     0.15270
N610        N  0.42475427  0.86421422  0.79336512     0.74360
O611        O  0.34245801  0.59552622  0.86954533    -0.39090
O612        O  0.36921499  0.56094839  0.93619444    -0.39030
O613        O  0.43060017  0.86329961  0.74867832    -0.39740
O614        O  0.44026025  0.82454238  0.81795805    -0.39800
C615        C  0.42689389  0.68148441  0.87467434    -0.12080
C616        C  0.41300003  0.68542238  0.92254614     0.04920
C617        C  0.36814286  0.71199207  0.93369944    -0.07370
C618        C  0.34060755  0.73573540  0.89605517    -0.08110
C619        C  0.35519169  0.73127226  0.84800426    -0.02670
C620        C  0.39876504  0.70227004  0.83778671     0.04150
N621        N  0.41479904  0.69018731  0.79027640     0.66660
H622        H  0.45890278  0.65791135  0.86471253     0.15560
H623        H  0.30631058  0.75547682  0.90398368     0.15270
N624        N  0.34888734  0.71394665  0.98152386     0.74360
O625        O  0.39443515  0.65227430  0.76732630    -0.39090
O626        O  0.45759288  0.70230959  0.77907048    -0.39030
O627        O  0.37650101  0.71192196  0.51744901    -0.39740
O628        O  0.30407308  0.72190393  0.98813812    -0.39800
C629        C  0.12452002  0.74702099  0.87553082    -0.12080
C630        C  0.17152628  0.76725568  0.87242821     0.04920
C631        C  0.18786345  0.80461201  0.90757628    -0.07370
C632        C  0.15673262  0.82142262  0.94439843    -0.08110
C633        C  0.10809625  0.80627308  0.94415880    -0.02670
C634        C  0.09218459  0.76687420  0.91053822     0.04150
N635        N  0.04306796  0.74836498  0.91036582     0.66660
H636        H  0.11191440  0.71864430  0.84842235     0.15560
H637        H  0.16879559  0.85271571  0.96919345     0.15270
N638        N  0.23303031  0.83199424  0.90297746     0.74360
O639        O  0.02393063  0.73175857  0.87200650    -0.39090
O640        O  0.01937738  0.74611706  0.94879363    -0.39030
O641        O  0.23912503  0.86308610  0.86784188    -0.39740
O642        O  0.25935434  0.83819180  0.93950885    -0.39800
C643        C  0.42634622  0.78040485  0.60007414    -0.12080
C644        C  0.41115121  0.81518981  0.56318353     0.04920
C645        C  0.36077029  0.82376517  0.55549688    -0.07370
C646        C  0.32753256  0.80173373  0.58766782    -0.08110
C647        C  0.34324830  0.77101254  0.62702470    -0.02670
C648        C  0.39309793  0.75921215  0.63246602     0.04150
N649        N  0.41124857  0.73516168  0.67534874     0.66660
H650        H  0.96465395  0.77451597  0.60703725     0.15560
H651        H  0.28923619  0.81108639  0.58343772     0.15270
N652        N  0.34276257  0.85603231  0.51646591     0.74360
O653        O  0.44422743  0.69889693  0.67329047    -0.39090
O654        O  0.40314293  0.75949719  0.71442301    -0.39030
O655        O  0.35658696  0.84555944  0.97436932    -0.39740
O656        O  0.30834239  0.88982815  0.52302927    -0.39800
C657        C  0.05698783  0.16010035  0.04565469     0.76640
Tb658      Tb  0.51331924  0.42580623  0.50560603     1.80740
O659        O  0.07319281  0.12701450  0.01466978    -0.51380
O660        O  0.98729154  0.13997538  0.44396600    -0.58830
C661        C  0.56027411  0.50788900  0.08460908     0.92450
O662        O  0.49220828  0.34956109  0.05180606    -0.58360
Tb663      Tb  0.00208326  0.07678648  0.00359893     1.78060
O664        O  0.53310971  0.35587390  0.45160202    -0.58860
O665        O  0.97434585  0.03821541  0.43040071    -0.77660
O666        O  0.52676117  0.04366178  0.07927309    -0.76980
O667        O  0.93538780  0.02744914  0.02826664    -0.62250
C668        C  0.95269654  0.49337009  0.42237743     0.92040
O669        O  0.54991925  0.46476859  0.43694140    -0.74190
C670        C  0.57340335  0.34250420  0.46951165     0.75490
C671        C  0.94476712  0.15395767  0.45578848     0.76470
O672        O  0.01246987  0.15315883  0.05422226    -0.59440
O673        O  0.93187004  0.13268841  0.49458279    -0.51390
O674        O  0.96800381  0.46216903  0.07114806    -0.77450
O675        O  0.57309965  0.04303101  0.46883640    -0.61450
C676        C  0.57639350  0.00689530  0.43648104     0.90260
C677        C  0.93396922  0.99681440  0.06432355     0.91490
C678        C  0.44790508  0.34941819  0.03986330     0.75830
O679        O  0.58291166  0.36824511  0.50764576    -0.50780
O680        O  0.43739762  0.38543063  0.00949986    -0.51930
O681        O  0.95508887  0.45351925  0.45082196    -0.64780
O682        O  0.56991721  0.47297033  0.05217303    -0.65920
C683        C  0.79561072  0.09496540  0.19132463     0.76640
Tb684      Tb  0.75044446  0.33763248  0.25089671     1.80740
O685        O  0.80874993  0.10549571  0.23368015    -0.51380
O686        O  0.74957676  0.11381226  0.30907963    -0.58830
C687        C  0.80977673  0.26546310  0.16758739     0.92450
O688        O  0.72500171  0.40741352  0.19913471    -0.58360
Tb689      Tb  0.75349197  0.17839231  0.24709875     1.78060
O690        O  0.77991853  0.41758870  0.28844906    -0.58860
O691        O  0.72620135  0.21833213  0.32058661    -0.77660
O692        O  0.79928049  0.21843632  0.18412924    -0.76980
O693        O  0.68409502  0.21844627  0.21513877    -0.62250
C694        C  0.69779019  0.25935662  0.32716790     0.92040
O695        O  0.79347534  0.29187795  0.31444942    -0.74190
C696        C  0.82447159  0.40653971  0.28368323     0.75490
C697        C  0.70659124  0.09878893  0.30077447     0.76470
O698        O  0.75857640  0.12233010  0.17873252    -0.59440
O699        O  0.68860964  0.12051233  0.26366529    -0.51390
O700        O  0.71171712  0.29512771  0.18407655    -0.77450
O701        O  0.82207787  0.22485935  0.27042980    -0.61450
C702        C  0.82261545  0.25128241  0.30904823     0.90260
C703        C  0.68255613  0.25512089  0.18362749     0.91490
C704        C  0.68812629  0.42297488  0.22217497     0.75830
O705        O  0.83185981  0.36296439  0.26033675    -0.50780
O706        O  0.68516028  0.40054601  0.26257074    -0.51930
O707        O  0.69103623  0.29552529  0.29569018    -0.64780
O708        O  0.79444890  0.31023063  0.18520233    -0.65920
C709        C  0.66686507  0.23169674  0.09907628    -0.12080
C710        C  0.64799507  0.24680996  0.14382982     0.04920
C711        C  0.59752922  0.24251544  0.15171283    -0.07370
C712        C  0.56821912  0.21990055  0.11594959    -0.08110
C713        C  0.58774803  0.19869196  0.07335776    -0.02670
C714        C  0.63764372  0.20726311  0.06359718     0.04150
N715        N  0.65995548  0.18925314  0.01959501     0.66660
H716        H  0.70545084  0.23543659  0.09303712     0.15560
H717        H  0.03035930  0.21380324  0.12385161     0.15270
N718        N  0.57511979  0.25872377  0.19605084     0.74360
O719        O  0.63700342  0.19194018  0.98062613    -0.39090
O720        O  0.70466209  0.17759269  0.01847467    -0.39030
O721        O  0.53362169  0.28124466  0.19553073    -0.39620
O722        O  0.59255034  0.24313950  0.23550397    -0.39800
C723        C  0.65984002  0.02734826  0.41201481    -0.12080
C724        C  0.61213876  0.01620544  0.39817636     0.04920
C725        C  0.59805090  0.02582027  0.35040918    -0.07370
C726        C  0.63137490  0.04764744  0.31815442    -0.08110
C727        C  0.67783088  0.06369103  0.33314669    -0.02670
C728        C  0.69236223  0.05209108  0.38072639     0.04150
N729        N  0.73761478  0.07008093  0.39990232     0.66660
H730        H  0.67055939  0.52143486  0.44897825     0.15560
H731        H  0.61910957  0.05675797  0.28217838     0.15270
N732        N  0.54850217  0.02203457  0.33588872     0.74360
O733        O  0.76346719  0.03689116  0.42356896    -0.39090
O734        O  0.74456089  0.12068958  0.40504901    -0.39030
O735        O  0.51953719  0.06033969  0.34715199    -0.39740
O736        O  0.53771754  0.99114508  0.30131449    -0.39800
C737        C  0.56998660  0.46668856  0.16381232    -0.12080
C738        C  0.58754122  0.50287933  0.12975674     0.04920
C739        C  0.63526480  0.52198296  0.13417707    -0.07370
C740        C  0.66586787  0.50002699  0.16963626    -0.08110
C741        C  0.65022654  0.45828798  0.19999123    -0.02670
C742        C  0.60048958  0.44353261  0.19887171     0.04150
N743        N  0.58088101  0.40162871  0.22887041     0.66660
H744        H  0.53355589  0.45161858  0.15967506     0.15560
H745        H  0.70354059  0.51199536  0.17050543     0.15270
N746        N  0.65412823  0.06131542  0.10159817     0.74360
O747        O  0.53626507  0.40242409  0.23875655    -0.39090
O748        O  0.60522768  0.35911326  0.23845011    -0.39030
O749        O  0.67917658  0.10026059  0.11733229    -0.39740
O750        O  0.64910348  0.05519625  0.05703238    -0.39800
C751        C  0.86077731  0.02454725  0.17734659    -0.12080
C752        C  0.82410607  0.05889814  0.15847680     0.04920
C753        C  0.81914367  0.06230612  0.10822814    -0.07370
C754        C  0.85197924  0.03417958  0.07884333    -0.08110
C755        C  0.89227045  0.00554527  0.09751395    -0.02670
C756        C  0.89476011  0.99745751  0.14750016     0.04150
N757        N  0.93190426  0.96380490  0.16870757     0.66660
H758        H  0.86405311  0.02020715  0.21575322     0.15560
H759        H  0.84858818  0.03974599  0.04054354     0.15270
N760        N  0.78499469  0.09879552  0.08581121     0.74360
O761        O  0.44990362  0.97710246  0.20862542    -0.39090
O762        O  0.43989602  0.41625242  0.15240419    -0.39030
O763        O  0.78935001  0.14970717  0.09171495    -0.39740
O764        O  0.76046917  0.08177934  0.05068899    -0.39800
C765        C  0.85152483  0.48788562  0.33056101    -0.12080
C766        C  0.86338392  0.43790517  0.30787454     0.04920
C767        C  0.90953359  0.41397161  0.31650909    -0.07370
C768        C  0.93982702  0.43663782  0.35129647    -0.08110
C769        C  0.92581650  0.48318911  0.37759002    -0.02670
C770        C  0.88209955  0.51068525  0.36567616     0.04150
N771        N  0.86610255  0.05866493  0.39122520     0.66660
H772        H  0.81644643  0.00689678  0.32396170     0.15560
H773        H  0.97367874  0.41575467  0.35988984     0.15270
N774        N  0.92473362  0.36422385  0.29336714     0.74360
O775        O  0.84247050  0.09550482  0.36955688    -0.39090
O776        O  0.86922477  0.06092223  0.43620515    -0.39030
O777        O  0.93060673  0.36330577  0.24868400    -0.39740
O778        O  0.94020656  0.32454440  0.31796986    -0.39800
C779        C  0.92688173  0.18147874  0.37467513    -0.12080
C780        C  0.91298524  0.18540531  0.42254687     0.04920
C781        C  0.86812326  0.21196436  0.43370110    -0.07370
C782        C  0.84058565  0.23570815  0.39605812    -0.08110
C783        C  0.85517542  0.23126119  0.34800774    -0.02670
C784        C  0.89875444  0.20227115  0.33778922     0.04150
N785        N  0.91480006  0.19021477  0.29027815     0.66660
H786        H  0.95889470  0.15791405  0.36471120     0.15560
H787        H  0.80628426  0.25543942  0.40398696     0.15270
N788        N  0.84886583  0.21390862  0.48152499     0.74360
O789        O  0.89445230  0.15230290  0.26731226    -0.39090
O790        O  0.95759134  0.20236051  0.27908327    -0.39030
O791        O  0.87647550  0.21188975  0.01745258    -0.39740
O792        O  0.80404963  0.22185172  0.48813800    -0.39800
C793        C  0.62449294  0.24701941  0.37550464    -0.12080
C794        C  0.67150225  0.26724672  0.37240720     0.04920
C795        C  0.68784044  0.30459809  0.40755861    -0.07370
C796        C  0.65670846  0.32141102  0.44437912    -0.08110
C797        C  0.60807017  0.30626868  0.44413504    -0.02670
C798        C  0.59215686  0.26687470  0.41051081     0.04150
N799        N  0.54303680  0.24837712  0.41032982     0.66660
H800        H  0.61188591  0.21864719  0.34839322     0.15560
H801        H  0.66877321  0.35270073  0.46917654     0.15270
N802        N  0.73300958  0.33197579  0.40296336     0.74360
O803        O  0.52389912  0.23178994  0.37196434    -0.39090
O804        O  0.51934072  0.24612705  0.44875415    -0.39030
O805        O  0.73910346  0.36307894  0.36783530    -0.39740
O806        O  0.75933599  0.33815989  0.43949482    -0.39800
C807        C  0.92634409  0.28040712  0.10006746    -0.12080
C808        C  0.91114245  0.31517731  0.06316928     0.04920
C809        C  0.86076016  0.32374103  0.05548285    -0.07370
C810        C  0.82752698  0.30171201  0.08766025    -0.08110
C811        C  0.84324954  0.27100510  0.12702301    -0.02670
C812        C  0.89310145  0.25921938  0.13246684     0.04150
N813        N  0.91125865  0.23518895  0.17535603     0.66660
H814        H  0.46465002  0.27453263  0.10703097     0.15560
H815        H  0.78922901  0.31105547  0.08343000     0.15270
N816        N  0.84274661  0.35599484  0.01644609     0.74360
O817        O  0.94426104  0.19895066  0.17330804    -0.39090
O818        O  0.90313086  0.25952361  0.21442632    -0.39030
O819        O  0.85657762  0.34552051  0.47435294    -0.39740
O820        O  0.80831978  0.38978356  0.02300326    -0.39800
C821        C  0.05699012  0.16010158  0.54565228     0.76640
Tb822      Tb  0.51331654  0.42580611  0.00560419     1.80740
O823        O  0.07319474  0.12701270  0.51466966    -0.51380
O824        O  0.98729144  0.13997873  0.94396783    -0.58830
C825        C  0.56027457  0.50789117  0.58461090     0.92450
O826        O  0.49221091  0.34956114  0.55180780    -0.58360
Tb827      Tb  0.00208411  0.07678672  0.50359982     1.78060
O828        O  0.53310699  0.35587495  0.95159908    -0.58860
O829        O  0.97434449  0.03821575  0.93039980    -0.77660
O830        O  0.52675826  0.04366026  0.57927443    -0.76980
O831        O  0.93538912  0.02744803  0.52826667    -0.62250
C832        C  0.95269376  0.49337186  0.92237926     0.92040
O833        O  0.54991622  0.46476772  0.93693905    -0.74190
C834        C  0.57340001  0.34250396  0.96950939     0.75490
C835        C  0.94476612  0.15395850  0.95578935     0.76470
O836        O  0.01247183  0.15316208  0.55421976    -0.59440
O837        O  0.93186813  0.13268623  0.99458201    -0.51390
O838        O  0.96800333  0.46216834  0.57114845    -0.77450
O839        O  0.57310100  0.04302952  0.96883682    -0.61450
C840        C  0.57639305  0.00689479  0.93648045     0.90260
C841        C  0.93397044  0.99681414  0.56432411     0.91490
C842        C  0.44790767  0.34941855  0.53986514     0.75830
O843        O  0.58290796  0.36824374  0.00764416    -0.50780
O844        O  0.43740022  0.38543126  0.50950192    -0.51930
O845        O  0.95508098  0.45352420  0.95082742    -0.64780
O846        O  0.56991842  0.47297254  0.55217498    -0.65920
C847        C  0.79561222  0.09496650  0.69132534     0.76640
Tb848      Tb  0.75044338  0.33763245  0.75089744     1.80740
O849        O  0.80875151  0.10549722  0.73368079    -0.51380
O850        O  0.74957564  0.11381177  0.80907976    -0.58830
C851        C  0.80977579  0.26546435  0.66758782     0.92450
O852        O  0.72500160  0.40741450  0.69913611    -0.58360
Tb853      Tb  0.75349203  0.17839247  0.74709936     1.78060
O854        O  0.77991760  0.41758818  0.78845031    -0.58860
O855        O  0.72620076  0.21833188  0.82058711    -0.77660
O856        O  0.79927992  0.21843746  0.68412976    -0.76980
O857        O  0.68409481  0.21844579  0.71513953    -0.62250
C858        C  0.69778899  0.25935594  0.82716797     0.92040
O859        O  0.79347412  0.29187826  0.81445036    -0.74190
C860        C  0.82447066  0.40653898  0.78368468     0.75490
C861        C  0.70659040  0.09878820  0.80077354     0.76470
O862        O  0.75857737  0.12233031  0.67873330    -0.59440
O863        O  0.68860959  0.12051195  0.76366417    -0.51390
O864        O  0.71171594  0.29512764  0.68407726    -0.77450
O865        O  0.82207752  0.22485962  0.77043122    -0.61450
C866        C  0.82261467  0.25128311  0.80904944     0.90260
C867        C  0.68255549  0.25512030  0.68362819     0.91490
C868        C  0.68812609  0.42297584  0.72217622     0.75830
O869        O  0.83185886  0.36296364  0.76033822    -0.50780
O870        O  0.68515946  0.40054627  0.76257164    -0.51930
O871        O  0.69103504  0.29552452  0.79569017    -0.64780
O872        O  0.79444760  0.31023171  0.68520271    -0.65920
C873        C  0.66686424  0.23169468  0.59907729    -0.12080
C874        C  0.64799437  0.24680868  0.64383069     0.04920
C875        C  0.59752861  0.24251385  0.65171403    -0.07370
C876        C  0.56821847  0.21989779  0.61595137    -0.08110
C877        C  0.58774725  0.19868880  0.57335962    -0.02670
C878        C  0.63764281  0.20726037  0.56359859     0.04150
N879        N  0.65995429  0.18925084  0.51959611     0.66660
H880        H  0.70544994  0.23543482  0.59303790     0.15560
H881        H  0.03036120  0.21381670  0.62384332     0.15270
N882        N  0.57511933  0.25872323  0.69605183     0.74360
O883        O  0.63700141  0.19193666  0.48062764    -0.39090
O884        O  0.70466134  0.17759274  0.51847492    -0.39030
O885        O  0.53362139  0.28124448  0.69553146    -0.39620
O886        O  0.59255006  0.24314001  0.73550520    -0.39800
C887        C  0.65984013  0.02734188  0.91201161    -0.12080
C888        C  0.61213729  0.01620474  0.89817489     0.04920
C889        C  0.59804755  0.02582491  0.85040912    -0.07370
C890        C  0.63137130  0.04765190  0.81815406    -0.08110
C891        C  0.67782936  0.06368983  0.83314489    -0.02670
C892        C  0.69236254  0.05208397  0.88072293     0.04150
N893        N  0.73761798  0.07006665  0.89989720     0.66660
H894        H  0.67055798  0.52142783  0.94897186     0.15560
H895        H  0.61910449  0.05676672  0.78217934     0.15270
N896        N  0.54849774  0.02204475  0.83589110     0.74360
O897        O  0.76347090  0.03687008  0.92355612    -0.39090
O898        O  0.74456699  0.12067380  0.90505159    -0.39030
O899        O  0.51953717  0.06035448  0.84715344    -0.39740
O900        O  0.53770827  0.99115381  0.80131940    -0.39800
C901        C  0.56998655  0.46669237  0.66381480    -0.12080
C902        C  0.58754164  0.50288207  0.62975856     0.04920
C903        C  0.63526588  0.52198395  0.63417779    -0.07370
C904        C  0.66586878  0.50002788  0.66963703    -0.08110
C905        C  0.65022686  0.45828969  0.69999257    -0.02670
C906        C  0.60048961  0.44353554  0.69887368     0.04150
N907        N  0.58088100  0.40163130  0.72887195     0.66660
H908        H  0.53355550  0.45162331  0.65967805     0.15560
H909        H  0.70354182  0.51199507  0.67050553     0.15270
N910        N  0.65412855  0.06131085  0.60159905     0.74360
O911        O  0.53626532  0.40242749  0.73875918    -0.39090
O912        O  0.60522676  0.35911438  0.73844896    -0.39030
O913        O  0.67917903  0.10025480  0.61733213    -0.39740
O914        O  0.64910370  0.05519039  0.55703340    -0.39800
C915        C  0.86077801  0.02454738  0.67734708    -0.12080
C916        C  0.82410775  0.05889962  0.65847740     0.04920
C917        C  0.81914606  0.06230883  0.60822878    -0.07370
C918        C  0.85198134  0.03418197  0.57884390    -0.08110
C919        C  0.89227169  0.00554600  0.59751448    -0.02670
C920        C  0.89476049  0.99745708  0.64750062     0.04150
N921        N  0.93190317  0.96380239  0.66870801     0.66660
H922        H  0.86405308  0.02020634  0.71575368     0.15560
H923        H  0.84859071  0.03974923  0.54054419     0.15270
N924        N  0.78499806  0.09879960  0.58581206     0.74360
O925        O  0.44989479  0.97709482  0.70862425    -0.39090
O926        O  0.43989593  0.41625147  0.65240486    -0.39030
O927        O  0.78935385  0.14971098  0.59171723    -0.39740
O928        O  0.76047281  0.08178497  0.55068907    -0.39800
C929        C  0.85152376  0.48788557  0.83056136    -0.12080
C930        C  0.86338291  0.43790445  0.80787611     0.04920
C931        C  0.90953224  0.41397064  0.81651204    -0.07370
C932        C  0.93982512  0.43663742  0.85129967    -0.08110
C933        C  0.92581450  0.48318967  0.87759175    -0.02670
C934        C  0.88209795  0.51068580  0.86567660     0.04150
N935        N  0.86610246  0.05866788  0.89122134     0.66660
H936        H  0.81644624  0.00689894  0.82395825     0.15560
H937        H  0.97367653  0.41575429  0.85989421     0.15270
N938        N  0.92473269  0.36422257  0.79337083     0.74360
O939        O  0.84247203  0.09550784  0.86955145    -0.39090
O940        O  0.86922298  0.06092622  0.93620136    -0.39030
O941        O  0.93060428  0.36330336  0.74868751    -0.39740
O942        O  0.94020871  0.32454495  0.81797401    -0.39800
C943        C  0.92688174  0.18148168  0.87467650    -0.12080
C944        C  0.91298431  0.18540643  0.92254803     0.04920
C945        C  0.86812154  0.21196374  0.93370214    -0.07370
C946        C  0.84058395  0.23570766  0.89605923    -0.08110
C947        C  0.85517477  0.23126268  0.84800906    -0.02670
C948        C  0.89875476  0.20227458  0.83779064     0.04150
N949        N  0.91480174  0.19022068  0.79027959     0.66660
H950        H  0.95889534  0.15791807  0.86471262     0.15560
H951        H  0.80628179  0.25543727  0.90398783     0.15270
N952        N  0.84886333  0.21390601  0.98152578     0.74360
O953        O  0.89445612  0.15230838  0.76731231    -0.39090
O954        O  0.95759252  0.20236964  0.77908566    -0.39030
O955        O  0.87647857  0.21189333  0.51745139    -0.39740
O956        O  0.80404695  0.22184823  0.98813829    -0.39800
C957        C  0.62449044  0.24701932  0.87550272    -0.12080
C958        C  0.67150022  0.26724565  0.87240678     0.04920
C959        C  0.68783807  0.30459630  0.90755892    -0.07370
C960        C  0.65670533  0.32140949  0.94437867    -0.08110
C961        C  0.60806677  0.30626820  0.94413310    -0.02670
C962        C  0.59215367  0.26687493  0.91050814     0.04150
N963        N  0.54303322  0.24837855  0.91032555     0.66660
H964        H  0.61188367  0.21864773  0.84839066     0.15560
H965        H  0.66876994  0.35269865  0.96917671     0.15270
N966        N  0.73300771  0.33197326  0.90296506     0.74360
O967        O  0.52389649  0.23179166  0.87195950    -0.39090
O968        O  0.51933569  0.24612947  0.94874905    -0.39030
O969        O  0.73910266  0.36307726  0.86783776    -0.39740
O970        O  0.75933339  0.33815611  0.93949721    -0.39800
C971        C  0.92634365  0.28040950  0.60006894    -0.12080
C972        C  0.91114221  0.31517926  0.56317049     0.04920
C973        C  0.86075999  0.32374280  0.55548368    -0.07370
C974        C  0.82752660  0.30171346  0.58766077    -0.08110
C975        C  0.84324899  0.27100672  0.62702377    -0.02670
C976        C  0.89310100  0.25922183  0.63246825     0.04150
N977        N  0.91125830  0.23519275  0.67535802     0.66660
H978        H  0.46465205  0.27453332  0.60703330     0.15560
H979        H  0.78922862  0.31105654  0.58343013     0.15270
N980        N  0.84274671  0.35599642  0.51644668     0.74360
O981        O  0.94426443  0.19895870  0.67331116    -0.39090
O982        O  0.90312690  0.25952636  0.71442806    -0.39030
O983        O  0.85657622  0.34551818  0.97435207    -0.39740
O984        O  0.80831919  0.38978438  0.52300326    -0.39800
C985        C  0.05697814  0.66008193  0.04567744     0.76640
Tb986      Tb  0.51333972  0.92580629  0.50562173     1.80740
O987        O  0.07319107  0.62699072  0.01470089    -0.51380
O988        O  0.98729989  0.63998427  0.44397211    -0.58830
C989        C  0.56029177  0.00790927  0.08461569     0.92450
O990        O  0.49222385  0.84956285  0.05182314    -0.58360
Tb991      Tb  0.00207525  0.57678336  0.00359800     1.78060
O992        O  0.53313332  0.85586318  0.45163048    -0.58860
O993        O  0.97433604  0.53822449  0.43039559    -0.77660
O994        O  0.52674215  0.54364044  0.07926981    -0.76980
O995        O  0.93537126  0.52745212  0.02824976    -0.62250
C996        C  0.95271162  0.99335674  0.42238600     0.92040
O997        O  0.54993097  0.96476425  0.43695147    -0.74190
C998        C  0.57343065  0.84250533  0.46953804     0.75490
C999        C  0.94477530  0.65397075  0.45579047     0.76470
O1000       O  0.01245483  0.65315184  0.05422609    -0.59440
O1001       O  0.93186991  0.63269793  0.49458047    -0.51390
O1002       O  0.96803127  0.96217212  0.07116568    -0.77450
O1003       O  0.57309054  0.54303344  0.46882928    -0.61450
C1004       C  0.57638478  0.50689766  0.43647398     0.90260
C1005       C  0.93394574  0.49681638  0.06430514     0.91490
C1006       C  0.44792023  0.84942674  0.03988126     0.75830
O1007       O  0.58293908  0.86825613  0.50766701    -0.50780
O1008       O  0.43741613  0.88544266  0.00952001    -0.51930
O1009       O  0.95511023  0.95350800  0.45083252    -0.64780
O1010       O  0.56993505  0.97298644  0.05218285    -0.65920
C1011       C  0.79559637  0.59497878  0.19131351     0.76640
Tb1012     Tb  0.75045040  0.83763775  0.25089571     1.80740
O1013       O  0.80873237  0.60548519  0.23367474    -0.51380
O1014       O  0.74958143  0.61381665  0.30909021    -0.58830
C1015       C  0.80977189  0.76546824  0.16758626     0.92450
O1016       O  0.72504918  0.90747009  0.19916463    -0.58360
Tb1017     Tb  0.75349687  0.67839805  0.24710940     1.78060
O1018       O  0.77993598  0.91758903  0.28844489    -0.58860
O1019       O  0.72621811  0.71834255  0.32059980    -0.77660
O1020       O  0.79929906  0.71844408  0.18414915    -0.76980
O1021       O  0.68408669  0.71845516  0.21518657    -0.62250
C1022       C  0.69781097  0.75936991  0.32718737     0.92040
O1023       O  0.79349228  0.79188768  0.31444423    -0.74190
C1024       C  0.82448786  0.90652913  0.28368505     0.75490
C1025       C  0.70659743  0.59878993  0.30078046     0.76470
O1026       O  0.75857241  0.62236413  0.17872425    -0.59440
O1027       O  0.68861873  0.62051154  0.26366929    -0.51390
O1028       O  0.71170365  0.79511838  0.18409195    -0.77450
O1029       O  0.82208816  0.72485885  0.27043140    -0.61450
C1030       C  0.82263041  0.75128968  0.30904548     0.90260
C1031       C  0.68253750  0.75511587  0.18366492     0.91490
C1032       C  0.68814775  0.92299698  0.22218143     0.75830
O1033       O  0.83187092  0.86294840  0.26034439    -0.50780
O1034       O  0.68514564  0.90052452  0.26255554    -0.51930
O1035       O  0.69105460  0.79554381  0.29571416    -0.64780
O1036       O  0.79441986  0.81023554  0.18518070    -0.65920
C1037       C  0.66683386  0.73170679  0.09911419    -0.12080
C1038       C  0.64796715  0.74678491  0.14387768     0.04920
C1039       C  0.59750607  0.74244031  0.15177379    -0.07370
C1040       C  0.56820003  0.71983117  0.11600485    -0.08110
C1041       C  0.58772946  0.69866132  0.07339927    -0.02670
C1042       C  0.63761958  0.70726489  0.06363382     0.04150
N1043       N  0.65993439  0.68928425  0.01962383     0.66660
H1044       H  0.70541535  0.73547987  0.09306722     0.15560
H1045       H  0.03034658  0.71372333  0.12390024     0.15270
N1046       N  0.57509590  0.75859562  0.19612632     0.74360
O1047       O  0.63696790  0.69194124  0.98066185    -0.39090
O1048       O  0.70465104  0.67767777  0.01848968    -0.39030
O1049       O  0.53358374  0.78108350  0.19562803    -0.39620
O1050       O  0.59254656  0.74300099  0.23556777    -0.39800
C1051       C  0.65983523  0.52734196  0.41201324    -0.12080
C1052       C  0.61213325  0.51620659  0.39817170     0.04920
C1053       C  0.59804856  0.52582894  0.35040472    -0.07370
C1054       C  0.63137725  0.54765288  0.31815301    -0.08110
C1055       C  0.67783391  0.56369028  0.33314884    -0.02670
C1056       C  0.69236131  0.55208487  0.38072853     0.04150
N1057       N  0.73761325  0.57007070  0.39990864     0.66660
H1058       H  0.67056667  0.02144592  0.44897976     0.15560
H1059       H  0.61911442  0.55676870  0.28217718     0.15270
N1060       N  0.54849907  0.52205795  0.33588277     0.74360
O1061       O  0.76346418  0.53687661  0.42357225    -0.39090
O1062       O  0.74455928  0.62067848  0.40506251    -0.39030
O1063       O  0.51953877  0.56036138  0.34716181    -0.39740
O1064       O  0.53771079  0.49119042  0.30129470    -0.39800
C1065       C  0.57001094  0.96669137  0.16380896    -0.12080
C1066       C  0.58755651  0.00290140  0.12976448     0.04920
C1067       C  0.63527628  0.02201731  0.13418977    -0.07370
C1068       C  0.66588478  0.00005853  0.16964420    -0.08110
C1069       C  0.65025119  0.95830473  0.19998720    -0.02670
C1070       C  0.60052144  0.94353081  0.19885738     0.04150
N1071       N  0.58093961  0.90158171  0.22882066     0.66660
H1072       H  0.53358703  0.95160359  0.15966578     0.15560
H1073       H  0.70355435  0.01203793  0.17051886     0.15270
N1074       N  0.65412559  0.56126731  0.10157760     0.74360
O1075       O  0.53633842  0.90238297  0.23876987    -0.39090
O1076       O  0.60527405  0.85901498  0.23826028    -0.39030
O1077       O  0.67918172  0.60020992  0.11730444    -0.39740
O1078       O  0.64910305  0.55513593  0.05701279    -0.39800
C1079       C  0.86074650  0.52454472  0.17732578    -0.12080
C1080       C  0.82408639  0.55891326  0.15845938     0.04920
C1081       C  0.81913224  0.56233876  0.10821090    -0.07370
C1082       C  0.85196398  0.53420833  0.07882427    -0.08110
C1083       C  0.89224577  0.50555484  0.09749344    -0.02670
C1084       C  0.89472738  0.49745367  0.14747819     0.04150
N1085       N  0.93186339  0.46378864  0.16868428     0.66660
H1086       H  0.86401637  0.52019238  0.21573174     0.15560
H1087       H  0.84857877  0.53978636  0.04052541     0.15270
N1088       N  0.78499705  0.59884781  0.08579750     0.74360
O1089       O  0.44985241  0.47707108  0.20860259    -0.39090
O1090       O  0.43995097  0.91627034  0.15243749    -0.39030
O1091       O  0.78936295  0.64975563  0.09171847    -0.39740
O1092       O  0.76047605  0.58185387  0.05066379    -0.39800
C1093       C  0.85154290  0.98787028  0.33056505    -0.12080
C1094       C  0.86340217  0.93789072  0.30787742     0.04920
C1095       C  0.90955114  0.91395534  0.31651353    -0.07370
C1096       C  0.93984109  0.93661771  0.35130684    -0.08110
C1097       C  0.92582998  0.98316945  0.37760018    -0.02670
C1098       C  0.88211489  0.01066728  0.36568333     0.04150
N1099       N  0.86608944  0.55868451  0.39121717     0.66660
H1100       H  0.81642738  0.50691054  0.32395935     0.15560
H1101       H  0.97369275  0.91573512  0.35990123     0.15270
N1102       N  0.92475710  0.86421558  0.29336061     0.74360
O1103       O  0.84245855  0.59552507  0.36954861    -0.39090
O1104       O  0.86921693  0.56094583  0.43619663    -0.39030
O1105       O  0.93059948  0.86330182  0.24867334    -0.39740
O1106       O  0.94026645  0.82454404  0.31795195    -0.39800
C1107       C  0.92689416  0.68148517  0.37467522    -0.12080
C1108       C  0.91300002  0.68542305  0.42254701     0.04920
C1109       C  0.86814293  0.71199322  0.43370003    -0.07370
C1110       C  0.84060808  0.73573693  0.39605556    -0.08110
C1111       C  0.85519261  0.73127384  0.34800475    -0.02670
C1112       C  0.89876587  0.70227142  0.33778748     0.04150
N1113       N  0.91480020  0.69018898  0.29027723     0.66660
H1114       H  0.95890283  0.65791171  0.36471339     0.15560
H1115       H  0.80631115  0.75547864  0.40398384     0.15270
N1116       N  0.84888694  0.71394785  0.48152427     0.74360
O1117       O  0.89443702  0.65227544  0.26732719    -0.39090
O1118       O  0.95759385  0.70231216  0.27907140    -0.39030
O1119       O  0.87649982  0.71191973  0.01744896    -0.39740
O1120       O  0.80407267  0.72190562  0.48813808    -0.39800
C1121       C  0.62452372  0.74702041  0.37553447    -0.12080
C1122       C  0.67152907  0.76725727  0.37242993     0.04920
C1123       C  0.68786614  0.80461496  0.40757691    -0.07370
C1124       C  0.65673604  0.82142486  0.44439991    -0.08110
C1125       C  0.60810024  0.80627309  0.44416220    -0.02670
C1126       C  0.59218888  0.76687272  0.41054279     0.04150
N1127       N  0.54307315  0.74836054  0.41037291     0.66660
H1128       H  0.61191828  0.71864245  0.34842695     0.15560
H1129       H  0.66879877  0.85271903  0.46919399     0.15270
N1130       N  0.73303200  0.83199885  0.40297624     0.74360
O1131       O  0.52393523  0.73175090  0.37201495    -0.39090
O1132       O  0.51938448  0.74611217  0.44880184    -0.39030
O1133       O  0.73912480  0.86309005  0.36783986    -0.39740
O1134       O  0.75935715  0.83819799  0.43950663    -0.39800
C1135       C  0.92634519  0.78040254  0.10007206    -0.12080
C1136       C  0.91115015  0.81518842  0.06318203     0.04920
C1137       C  0.86076920  0.82376403  0.05549564    -0.07370
C1138       C  0.82753152  0.80173242  0.08766653    -0.08110
C1139       C  0.84324728  0.77101055  0.12702301    -0.02670
C1140       C  0.89309683  0.75920932  0.13246368     0.04150
N1141       N  0.91124739  0.73515783  0.17534593     0.66660
H1142       H  0.46465339  0.77451351  0.10703504     0.15560
H1143       H  0.78923519  0.81108555  0.08343678     0.15270
N1144       N  0.84276139  0.85603182  0.01646511     0.74360
O1145       O  0.94422329  0.69888973  0.17328684    -0.39090
O1146       O  0.90314503  0.75949471  0.21442021    -0.39030
O1147       O  0.85658892  0.84555942  0.47437002    -0.39740
O1148       O  0.80834172  0.88982815  0.02302912    -0.39800
C1149       C  0.05697834  0.66008053  0.54567896     0.76640
Tb1150     Tb  0.51333785  0.92580775  0.00562084     1.80740
O1151       O  0.07319101  0.62698851  0.51470290    -0.51380
O1152       O  0.98730021  0.63998523  0.94397099    -0.58830
C1153       C  0.56028995  0.00790903  0.58461742     0.92450
O1154       O  0.49222429  0.84956084  0.55182226    -0.58360
Tb1155     Tb  0.00207444  0.57678285  0.50359944     1.78060
O1156       O  0.53313099  0.85586863  0.95162551    -0.58860
O1157       O  0.97433807  0.53822383  0.93039432    -0.77660
O1158       O  0.52674216  0.54364209  0.57927139    -0.76980
O1159       O  0.93537114  0.52744704  0.52824579    -0.62250
C1160       C  0.95270909  0.99335770  0.92238572     0.92040
O1161       O  0.54992901  0.96476498  0.93695037    -0.74190
C1162       C  0.57342714  0.84250732  0.96953388     0.75490
C1163       C  0.94477510  0.65397016  0.95578891     0.76470
O1164       O  0.01245482  0.65315134  0.55422756    -0.59440
O1165       O  0.93186958  0.63269619  0.99457832    -0.51390
O1166       O  0.96803252  0.96217199  0.57116672    -0.77450
O1167       O  0.57308923  0.54303187  0.96882694    -0.61450
C1168       C  0.57638211  0.50689648  0.93647116     0.90260
C1169       C  0.93394510  0.49681487  0.56430335     0.91490
C1170       C  0.44792021  0.84942731  0.53988187     0.75830
O1171       O  0.58293525  0.86825472  0.00766467    -0.50780
O1172       O  0.43741625  0.88544513  0.50952224    -0.51930
O1173       O  0.95510628  0.95350973  0.95083314    -0.64780
O1174       O  0.56993505  0.97298715  0.55218432    -0.65920
C1175       C  0.79559350  0.59498001  0.69130978     0.76640
Tb1176     Tb  0.75044880  0.83763760  0.75089599     1.80740
O1177       O  0.80872775  0.60548421  0.73367191    -0.51380
O1178       O  0.74957685  0.61381521  0.80908573    -0.58830
C1179       C  0.80977298  0.76546972  0.66758743     0.92450
O1180       O  0.72504070  0.90746397  0.69916242    -0.58360
Tb1181     Tb  0.75349345  0.67839832  0.74710643     1.78060
O1182       O  0.77993440  0.91758941  0.78844440    -0.58860
O1183       O  0.72621520  0.71834131  0.82059759    -0.77660
O1184       O  0.79929901  0.71844531  0.68414906    -0.76980
O1185       O  0.68408535  0.71845823  0.71518093    -0.62250
C1186       C  0.69780791  0.75936853  0.82718478     0.92040
O1187       O  0.79349014  0.79188539  0.81444379    -0.74190
C1188       C  0.82448625  0.90652949  0.78368450     0.75490
C1189       C  0.70659250  0.59878977  0.80077599     0.76470
O1190       O  0.75857070  0.62236691  0.67871982    -0.59440
O1191       O  0.68861393  0.62051301  0.76366547    -0.51390
O1192       O  0.71170583  0.79512128  0.68408897    -0.77450
O1193       O  0.82208545  0.72485657  0.77043046    -0.61450
C1194       C  0.82262800  0.75128716  0.80904464     0.90260
C1195       C  0.68253916  0.75511941  0.68365947     0.91490
C1196       C  0.68814326  0.92299515  0.72218331     0.75830
O1197       O  0.83186927  0.86294874  0.76034394    -0.50780
O1198       O  0.68514695  0.90052779  0.76256009    -0.51930
O1199       O  0.69105153  0.79554166  0.79571100    -0.64780
O1200       O  0.79442089  0.81023685  0.68518221    -0.65920
C1201       C  0.66683863  0.73170571  0.59910905    -0.12080
C1202       C  0.64797082  0.74679067  0.64387034     0.04920
C1203       C  0.59750895  0.74245420  0.65176391    -0.07370
C1204       C  0.56820285  0.71984217  0.61599644    -0.08110
C1205       C  0.58773279  0.69866476  0.57339382    -0.02670
C1206       C  0.63762382  0.70726377  0.56362905     0.04150
N1207       N  0.65993866  0.68927920  0.51962015     0.66660
H1208       H  0.70542081  0.73547403  0.59306377     0.15560
H1209       H  0.03034710  0.71372674  0.62389978     0.15270
N1210       N  0.57509830  0.75862047  0.69611313     0.74360
O1211       O  0.63697194  0.69193199  0.48065809    -0.39090
O1212       O  0.70465579  0.67767532  0.51848616    -0.39030
O1213       O  0.53358912  0.78111537  0.69560967    -0.39620
O1214       O  0.59254388  0.74302740  0.73555720    -0.39800
C1215       C  0.65983233  0.52733757  0.91200759    -0.12080
C1216       C  0.61212929  0.51620541  0.89816770     0.04920
C1217       C  0.59804279  0.52583125  0.85040175    -0.07370
C1218       C  0.63137079  0.54765561  0.81814952    -0.08110
C1219       C  0.67782880  0.56368974  0.83314399    -0.02670
C1220       C  0.69235792  0.55208060  0.88072248     0.04150
N1221       N  0.73761146  0.57006292  0.89990134     0.66660
H1222       H  0.67056842  0.02143530  0.94897558     0.15560
H1223       H  0.61910662  0.55677417  0.78217467     0.15270
N1224       N  0.54849253  0.52206322  0.83588180     0.74360
O1225       O  0.76346300  0.53686540  0.92356069    -0.39090
O1226       O  0.74455876  0.62066995  0.90505927    -0.39030
O1227       O  0.51953493  0.56036952  0.84716020    -0.39740
O1228       O  0.53770116  0.49119459  0.80129546    -0.39800
C1229       C  0.57000636  0.96669503  0.66381298    -0.12080
C1230       C  0.58755402  0.00290166  0.62976675     0.04920
C1231       C  0.63527449  0.02201518  0.63419177    -0.07370
C1232       C  0.66588160  0.00005647  0.66964722    -0.08110
C1233       C  0.65024631  0.95830487  0.69999174    -0.02670
C1234       C  0.60051516  0.94353478  0.69886342     0.04150
N1235       N  0.58092819  0.90159350  0.72883248     0.66660
H1236       H  0.53358131  0.95161044  0.65967038     0.15560
H1237       H  0.70355179  0.01203365  0.67052123     0.15270
N1238       N  0.65412756  0.56126606  0.60157675     0.74360
O1239       O  0.53632457  0.90239481  0.73877130    -0.39090
O1240       O  0.60526380  0.85903447  0.73829487    -0.39030
O1241       O  0.67918438  0.60020885  0.61730204    -0.39740
O1242       O  0.64910565  0.55513198  0.55701214    -0.39800
C1243       C  0.86074228  0.52454411  0.67732250    -0.12080
C1244       C  0.82408432  0.55891523  0.65845570     0.04920
C1245       C  0.81913301  0.56234370  0.60820721    -0.07370
C1246       C  0.85196512  0.53421323  0.57882107    -0.08110
C1247       C  0.89224477  0.50555636  0.59749090    -0.02670
C1248       C  0.89472360  0.49745276  0.64747552     0.04150
N1249       N  0.93185698  0.46378464  0.66868231     0.66660
H1250       H  0.86400994  0.52018963  0.71572844     0.15560
H1251       H  0.84858160  0.53979322  0.54052232     0.15270
N1252       N  0.78500007  0.59885519  0.58579364     0.74360
O1253       O  0.44985199  0.47706816  0.70860490    -0.39090
O1254       O  0.43994283  0.91626600  0.65243351    -0.39030
O1255       O  0.78936740  0.64976254  0.59171661    -0.39740
O1256       O  0.76047997  0.58186378  0.55065838    -0.39800
C1257       C  0.85154210  0.98787158  0.83056285    -0.12080
C1258       C  0.86340064  0.93789090  0.80787681     0.04920
C1259       C  0.90954879  0.91395439  0.81651452    -0.07370
C1260       C  0.93983860  0.93661689  0.85130778    -0.08110
C1261       C  0.92582810  0.98316993  0.87759963    -0.02670
C1262       C  0.88211400  0.01066881  0.86568113     0.04150
N1263       N  0.86608768  0.55868581  0.89121642     0.66660
H1264       H  0.81642659  0.50691067  0.82395862     0.15560
H1265       H  0.97368950  0.91573339  0.85990339     0.15270
N1266       N  0.92475376  0.86421319  0.79336352     0.74360
O1267       O  0.84245678  0.59552560  0.86954688    -0.39090
O1268       O  0.86921458  0.56094830  0.93619588    -0.39030
O1269       O  0.93060117  0.86329869  0.74867692    -0.39740
O1270       O  0.94025768  0.82454061  0.81795676    -0.39800
C1271       C  0.92689288  0.68148333  0.87467368    -0.12080
C1272       C  0.91299935  0.68542187  0.92254554     0.04920
C1273       C  0.86814223  0.71199172  0.93369886    -0.07370
C1274       C  0.84060683  0.73573489  0.89605454    -0.08110
C1275       C  0.85519060  0.73127105  0.84800355    -0.02670
C1276       C  0.89876367  0.70226820  0.83778599     0.04150
N1277       N  0.91479690  0.69018378  0.79027572     0.66660
H1278       H  0.95890168  0.65791012  0.86471190     0.15560
H1279       H  0.80631005  0.75547669  0.90398312     0.15270
N1280       N  0.84888679  0.71394658  0.98152331     0.74360
O1281       O  0.89443154  0.65227118  0.76732642    -0.39090
O1282       O  0.95759115  0.70230378  0.77906933    -0.39030
O1283       O  0.87649957  0.71192100  0.51745021    -0.39740
O1284       O  0.80407253  0.72190383  0.98813761    -0.39800
C1285       C  0.62451923  0.74702173  0.87553013    -0.12080
C1286       C  0.67152549  0.76725630  0.87242700     0.04920
C1287       C  0.68786291  0.80461309  0.90757458    -0.07370
C1288       C  0.65673237  0.82142414  0.94439684    -0.08110
C1289       C  0.60809601  0.80627458  0.94415773    -0.02670
C1290       C  0.59218408  0.76687544  0.91053755     0.04150
N1291       N  0.54306732  0.74836671  0.91036535     0.66660
H1292       H  0.61191335  0.71864479  0.84842198     0.15560
H1293       H  0.66879553  0.85271751  0.96919148     0.15270
N1294       N  0.73302967  0.83199536  0.90297506     0.74360
O1295       O  0.52392946  0.73176151  0.87200590    -0.39090
O1296       O  0.51937695  0.74611862  0.94879327    -0.39030
O1297       O  0.73912383  0.86308709  0.86783929    -0.39740
O1298       O  0.75935418  0.83819316  0.93950608    -0.39800
C1299       C  0.92634713  0.78040427  0.60007446    -0.12080
C1300       C  0.91115228  0.81518936  0.56318383     0.04920
C1301       C  0.86077139  0.82376493  0.55549711    -0.07370
C1302       C  0.82753354  0.80173372  0.58766800    -0.08110
C1303       C  0.84324908  0.77101244  0.62702488    -0.02670
C1304       C  0.89309862  0.75921162  0.63246621     0.04150
N1305       N  0.91124895  0.73516044  0.67534872     0.66660
H1306       H  0.46465304  0.77451688  0.60703695     0.15560
H1307       H  0.78923721  0.81108658  0.58343782     0.15270
N1308       N  0.84276381  0.85603221  0.51646618     0.74360
O1309       O  0.94422685  0.69889461  0.67329017    -0.39090
O1310       O  0.90314373  0.75949567  0.71442321    -0.39030
O1311       O  0.85658620  0.84555949  0.97436877    -0.39740
O1312       O  0.80834418  0.88982872  0.52302972    -0.39800
loop_ 
_geom_bond_atom_site_label_1 
_geom_bond_atom_site_label_2 
_geom_bond_distance 
_geom_bond_site_symmetry_2 
_ccdc_geom_bond_type 
C1           O16   1.267       .  A
C1            O3   1.260       .  A
C1          C713   1.490       .  S
Tb2           O8   2.334       .  S
Tb2          O13   2.386       .  S
Tb2          O23   2.364       .  S
Tb2         O188   2.333   1_455  S
Tb2         O681   2.314   1_455  S
Tb2         O838   2.383   1_455  S
Tb2         O170   2.359   1_455  S
Tb2         O190   2.342       .  S
O3           Tb7   2.349       .  S
O4           C15   1.262       .  A
O4         Tb171   2.314       .  S
C5           O26   1.268       .  A
C5          O338   1.272       .  A
C5           C82   1.473       .  S
O6           C22   1.266       .  A
O6         Tb166   2.359   1_655  S
Tb7          O11   2.326       .  S
Tb7          O16   2.356       .  S
Tb7         O168   2.314   1_554  S
Tb7         O666   2.367       .  S
Tb7         O181   2.368   1_554  S
Tb7         O839   2.328   1_554  S
Tb7         O173   2.377   1_554  S
O8           C14   1.257       .  A
O9          C340   1.275   1_545  A
O9         Tb171   2.377       .  S
O10         C333   1.272       .  A
O10        Tb663   2.367       .  S
O11          C21   1.262   1_545  A
C12          O25   1.264       .  A
C12         O337   1.275       .  A
C12         C113   1.475       .  S
O13         C348   1.272       .  A
C14          O23   1.263       .  A
C14         C141   1.475       .  S
C15          O17   1.262       .  A
C15         C124   1.486       .  S
O17        Tb171   2.368       .  S
O18         C349   1.271       .  A
O18        Tb822   2.383       .  S
O19          C20   1.263       .  A
O19        Tb827   2.328       .  S
C20         O341   1.272   1_545  A
C20          C68   1.481       .  S
C21         O346   1.271       .  A
C21          C99   1.493   1_565  S
C22          O24   1.258       .  A
C22         C808   1.482       .  S
O24        Tb166   2.333   1_655  S
O25        Tb658   2.314       .  S
O26        Tb166   2.342       .  S
C27          O42   1.263       .  A
C27          O29   1.264       .  A
C27          C96   1.488       .  S
Tb28         O50   2.373       .  S
Tb28         O51   2.325       .  S
Tb28         O34   2.367       .  S
Tb28         O44   2.389       .  S
Tb28         O39   2.408       .  S
Tb28         O32   2.345       .  S
Tb28         O52   2.297       .  S
Tb28         O49   2.352       .  S
O29         Tb33   2.357       .  S
O30          C41   1.267       .  A
O30         Tb33   2.359       .  S
C31          O36   1.281       .  A
C31          O52   1.265       .  A
C31         C155   1.474       .  S
O32          C48   1.259       .  A
Tb33         O37   2.317       .  S
Tb33         O42   2.348       .  S
Tb33         O36   2.396       .  S
Tb33         O43   2.349       .  S
Tb33         O45   2.311       .  S
Tb33         O35   2.389       .  S
O34          C40   1.262       .  A
O35          C38   1.277       .  A
O37          C47   1.263       .  A
C38          O51   1.264       .  A
C38         C138   1.471       .  S
O39          C46   1.277       .  A
C40          O49   1.260       .  A
C40         C110   1.487       .  S
C41          O43   1.266       .  A
C41          C71   1.492       .  S
O44          C47   1.276       .  A
O45          C46   1.255       .  A
C46         C127   1.491       .  S
C47          C54   1.478       .  S
C48          O50   1.264       .  A
C48          C85   1.483       .  S
C53          C54   1.403       .  A
C53          C58   1.411       .  A
C53          H60   1.084       .  S
C54          C55   1.416       .  A
C55          C56   1.400       .  A
C55          N62   1.439       .  S
C56          C57   1.402       .  A
C56         H717   1.081       .  S
C57         C657   1.490       .  S
C57          C58   1.423       .  A
C58          N59   1.442       .  S
N59          O63   1.260   1_554  A
N59          O64   1.262       .  A
H61         C712   1.081       .  S
N62          O65   1.263       .  A
N62          O66   1.262       .  A
C67          C68   1.400       .  A
C67          C72   1.403       .  A
C67         H402   1.085       .  S
C68          C69   1.411       .  A
C69          C70   1.405       .  A
C69          N76   1.429       .  S
C70          C71   1.408       .  A
C70          H75   1.084       .  S
C71          C72   1.418       .  A
C72          N73   1.431       .  S
N73          O77   1.262       .  A
N73          O78   1.263       .  A
H74         C395   1.085       .  S
N76          O79   1.261       .  A
N76          O80   1.260   1_545  A
C81          C82   1.399       .  A
C81          C86   1.407       .  A
C81          H88   1.081       .  S
C82          C83   1.408       .  A
C83          C84   1.405       .  A
C83         N418   1.435       .  S
C84          C85   1.407       .  A
C84          H89   1.084       .  S
C85          C86   1.424       .  A
C86          N87   1.443       .  S
N87          O91   1.262       .  A
N87          O92   1.259       .  A
N90         C411   1.435       .  S
N90          O93   1.261       .  A
N90          O94   1.262       .  A
C95          C96   1.409       .  A
C95         C100   1.412   1_545  A
C95         H102   1.084       .  S
C96          C97   1.415       .  A
C97          C98   1.396       .  A
C97         N104   1.434       .  S
C98          C99   1.406       .  A
C98         H103   1.085       .  S
C99         C100   1.415   1_545  A
C100        N101   1.434       .  S
N101        O761   1.263       .  A
N101       O1090   1.262       .  A
N104        O107   1.262       .  A
N104        O108   1.262       .  A
O105        N757   1.263       .  A
O106       N1085   1.262       .  A
C109        C110   1.408       .  A
C109        C114   1.410       .  A
C109        H444   1.084       .  S
C110        C111   1.414       .  A
C111        C112   1.397       .  A
C111        N118   1.432       .  S
C112        C113   1.401       .  A
C112        H117   1.085       .  S
C113        C114   1.412       .  A
C114        N443   1.435       .  S
N115        C442   1.435       .  S
N115        O119   1.262       .  A
N115        O120   1.262       .  A
H116        C437   1.084   1_545  S
N118        O121   1.261       .  A
N118        O122   1.262       .  A
C123        C124   1.397       .  A
C123        C128   1.384       .  A
C123        H130   1.084       .  S
C124        C125   1.424       .  A
C125        C126   1.419       .  A
C125        N132   1.442       .  S
C126        C127   1.408       .  A
C126        H131   1.079       .  S
C127        C128   1.416       .  A
C128        N129   1.430       .  S
N129        O133   1.262       .  A
N129        O134   1.263       .  A
N132        O136   1.263       .  A
N132        O299   1.260       .  A
O135        N296   1.260   1_554  A
C137        C138   1.398       .  A
C137        C142   1.406       .  A
C137        H144   1.084       .  S
C138        C139   1.414       .  A
C139        C140   1.399       .  A
C139        N146   1.430       .  S
C140        C141   1.397       .  A
C140        H145   1.084       .  S
C141        C142   1.415       .  A
C142        N143   1.435       .  S
N143        O147   1.261       .  A
N143        O148   1.262       .  A
N146        O149   1.261       .  A
N146        O150   1.261       .  A
C151        C152   1.402       .  A
C151        C156   1.400       .  A
C151        H814   1.082       .  S
C152        C678   1.482       .  S
C152        C153   1.418       .  A
C153        C154   1.404       .  A
C153        N160   1.435       .  S
C154        C155   1.402       .  A
C154        H159   1.084       .  S
C155        C156   1.409       .  A
C156        N157   1.426       .  S
N157        O161   1.262       .  A
N157        O162   1.260       .  A
H158        C807   1.082       .  S
N160        O164   1.263       .  A
N160        O327   1.263   1_554  A
O163        N324   1.263       .  A
C165        O180   1.267       .  A
C165        O167   1.260       .  A
C165        C877   1.490       .  S
Tb166       O845   2.314   1_454  S
Tb166       O172   2.334   1_554  S
Tb166       O674   2.383   1_455  S
Tb166       O177   2.386   1_554  S
Tb166       O187   2.364       .  S
O167       Tb171   2.349       .  S
O168        C179   1.262       .  A
C169        O502   1.272       .  A
C169        O190   1.268       .  A
C169        C246   1.473       .  S
O170        C186   1.266       .  A
Tb171       O175   2.326       .  S
Tb171       O180   2.356       .  S
Tb171       O830   2.367       .  S
Tb171       O675   2.328       .  S
O172        C178   1.257       .  A
O173        C504   1.275   1_545  A
O174        C497   1.272       .  A
O174       Tb827   2.367       .  S
O175        C185   1.262   1_545  A
C176        O501   1.275       .  A
C176        O189   1.264       .  A
C176        C277   1.475       .  S
O177        C512   1.272       .  A
C178        O187   1.263   1_556  A
C178        C305   1.475       .  S
C179        O181   1.262       .  A
C179        C288   1.486       .  S
O182        C513   1.271       .  A
O182       Tb658   2.383       .  S
O183        C184   1.263       .  A
O183       Tb663   2.328   1_556  S
C184        O505   1.272   1_545  A
C184        C232   1.481       .  S
C185        O510   1.271       .  A
C185        C263   1.493   1_565  S
C186        O188   1.258       .  A
C186        C972   1.482       .  S
O189       Tb822   2.314   1_556  S
C191        O206   1.263       .  A
C191        O193   1.264       .  A
C191        C260   1.488       .  S
Tb192       O214   2.373       .  S
Tb192       O215   2.325       .  S
Tb192       O198   2.367       .  S
Tb192       O208   2.389       .  S
Tb192       O203   2.408       .  S
Tb192       O196   2.345       .  S
Tb192       O216   2.297       .  S
Tb192       O213   2.352       .  S
O193       Tb197   2.357       .  S
O194        C205   1.267       .  A
O194       Tb197   2.359       .  S
C195        O200   1.281       .  A
C195        O216   1.265       .  A
C195        C319   1.474       .  S
O196        C212   1.259       .  A
Tb197       O201   2.317       .  S
Tb197       O206   2.348       .  S
Tb197       O200   2.396       .  S
Tb197       O207   2.349       .  S
Tb197       O209   2.311       .  S
Tb197       O199   2.389       .  S
O198        C204   1.262       .  A
O199        C202   1.277       .  A
O201        C211   1.263       .  A
C202        O215   1.264       .  A
C202        C302   1.471       .  S
O203        C210   1.277       .  A
C204        O213   1.260       .  A
C204        C274   1.487       .  S
C205        O207   1.266       .  A
C205        C235   1.492       .  S
O208        C211   1.276       .  A
O209        C210   1.255       .  A
C210        C291   1.491       .  S
C211        C218   1.478       .  S
C212        O214   1.264       .  A
C212        C249   1.483       .  S
C217        C218   1.403       .  A
C217        C222   1.411       .  A
C217        H224   1.084       .  S
C218        C219   1.416       .  A
C219        C220   1.400       .  A
C219        N226   1.439       .  S
C220        C221   1.402       .  A
C220        H881   1.081       .  S
C221        C821   1.490       .  S
C221        C222   1.423       .  A
C222        N223   1.442       .  S
N223        O227   1.260       .  A
N223        O228   1.262       .  A
H225        C876   1.081       .  S
N226        O229   1.263       .  A
N226        O230   1.262       .  A
C231        C232   1.400       .  A
C231        C236   1.403       .  A
C231        H566   1.085       .  S
C232        C233   1.411       .  A
C233        C234   1.405       .  A
C233        N240   1.429       .  S
C234        C235   1.408       .  A
C234        H239   1.084       .  S
C235        C236   1.418       .  A
C236        N237   1.431       .  S
N237        O241   1.262       .  A
N237        O242   1.263       .  A
H238        C559   1.085       .  S
N240        O243   1.261       .  A
N240        O244   1.260   1_545  A
C245        C246   1.399       .  A
C245        C250   1.407       .  A
C245        H252   1.081       .  S
C246        C247   1.408       .  A
C247        C248   1.405       .  A
C247        N582   1.435       .  S
C248        C249   1.407       .  A
C248        H253   1.084       .  S
C249        C250   1.424       .  A
C250        N251   1.443       .  S
N251        O255   1.262       .  A
N251        O256   1.259       .  A
N254        C575   1.435       .  S
N254        O257   1.261       .  A
N254        O258   1.262       .  A
C259        C260   1.409       .  A
C259        C264   1.412   1_545  A
C259        H266   1.084       .  S
C260        C261   1.415       .  A
C261        C262   1.396       .  A
C261        N268   1.434       .  S
C262        C263   1.406       .  A
C262        H267   1.085       .  S
C263        C264   1.415   1_545  A
C264        N265   1.434       .  S
N265        O925   1.263       .  A
N265       O1254   1.262       .  A
N268        O271   1.262       .  A
N268        O272   1.262       .  A
O269        N921   1.263       .  A
O270       N1249   1.262       .  A
C273        C274   1.408       .  A
C273        C278   1.410       .  A
C273        H608   1.084       .  S
C274        C275   1.414       .  A
C275        C276   1.397       .  A
C275        N282   1.432       .  S
C276        C277   1.401       .  A
C276        H281   1.085       .  S
C277        C278   1.412       .  A
C278        N607   1.435       .  S
N279        C606   1.435       .  S
N279        O283   1.262       .  A
N279        O284   1.262       .  A
H280        C601   1.084   1_545  S
N282        O285   1.261       .  A
N282        O286   1.262       .  A
C287        C288   1.397       .  A
C287        C292   1.384       .  A
C287        H294   1.084       .  S
C288        C289   1.424       .  A
C289        C290   1.419       .  A
C289        N296   1.442       .  S
C290        C291   1.408       .  A
C290        H295   1.079       .  S
C291        C292   1.416       .  A
C292        N293   1.430       .  S
N293        O297   1.262       .  A
N293        O298   1.263       .  A
N296        O300   1.263       .  A
C301        C302   1.398       .  A
C301        C306   1.406       .  A
C301        H308   1.084       .  S
C302        C303   1.414       .  A
C303        C304   1.399       .  A
C303        N310   1.430       .  S
C304        C305   1.397       .  A
C304        H309   1.084       .  S
C305        C306   1.415       .  A
C306        N307   1.435       .  S
N307        O311   1.261       .  A
N307        O312   1.262       .  A
N310        O313   1.261       .  A
N310        O314   1.261       .  A
C315        C316   1.402       .  A
C315        C320   1.400       .  A
C315        H978   1.082       .  S
C316        C842   1.482       .  S
C316        C317   1.418       .  A
C317        C318   1.404       .  A
C317        N324   1.435       .  S
C318        C319   1.402       .  A
C318        H323   1.084       .  S
C319        C320   1.409       .  A
C320        N321   1.426       .  S
N321        O325   1.262       .  A
N321        O326   1.260       .  A
H322        C971   1.082       .  S
N324        O328   1.263       .  A
C329        O344   1.267       .  A
C329        O331   1.260       .  A
C329       C1041   1.490       .  S
Tb330       O516   2.332   1_455  S
Tb330      O1009   2.314   1_455  S
Tb330       O336   2.334       .  S
Tb330      O1166   2.382   1_455  S
Tb330       O341   2.386       .  S
Tb330       O498   2.359   1_455  S
Tb330       O518   2.342       .  S
Tb330       O351   2.364       .  S
O331       Tb335   2.349       .  S
O332        C343   1.262       .  A
O332       Tb499   2.314       .  S
C333        O354   1.268   1_545  A
C333        C410   1.473       .  S
O334        C350   1.266       .  A
O334       Tb494   2.359   1_655  S
Tb335       O496   2.314   1_554  S
Tb335       O339   2.326       .  S
Tb335       O344   2.356       .  S
Tb335       O994   2.367       .  S
Tb335       O509   2.368   1_554  S
Tb335      O1167   2.328   1_554  S
Tb335       O501   2.377   1_554  S
O336        C342   1.257       .  A
O337       Tb499   2.377       .  S
O338       Tb991   2.367       .  S
O339        C349   1.262       .  A
C340        O353   1.264       .  A
C340        C441   1.475       .  S
C342        O351   1.263       .  A
C342        C469   1.475       .  S
C343        O345   1.262       .  A
C343        C452   1.486       .  S
O345       Tb499   2.368       .  S
O346      Tb1150   2.382       .  S
O347        C348   1.263       .  A
O347      Tb1155   2.328       .  S
C348        C396   1.481       .  S
C349        C427   1.493       .  S
C350        O352   1.258       .  A
C350       C1136   1.482       .  S
O352       Tb494   2.332   1_655  S
O353       Tb986   2.314       .  S
O354       Tb494   2.342       .  S
C355        O370   1.263       .  A
C355        O357   1.264       .  A
C355        C424   1.488       .  S
Tb356       O378   2.373       .  S
Tb356       O379   2.325       .  S
Tb356       O362   2.366       .  S
Tb356       O372   2.389       .  S
Tb356       O367   2.408       .  S
Tb356       O360   2.345       .  S
Tb356       O380   2.297       .  S
Tb356       O377   2.352       .  S
O357       Tb361   2.357       .  S
O358        C369   1.267       .  A
O358       Tb361   2.359       .  S
C359        O364   1.281       .  A
C359        O380   1.265       .  A
C359        C483   1.474       .  S
O360        C376   1.259       .  A
Tb361       O365   2.317       .  S
Tb361       O370   2.348       .  S
Tb361       O364   2.396       .  S
Tb361       O371   2.349       .  S
Tb361       O373   2.311       .  S
Tb361       O363   2.389       .  S
O362        C368   1.262       .  A
O363        C366   1.277       .  A
O365        C375   1.263       .  A
C366        O379   1.264       .  A
C366        C466   1.471       .  S
O367        C374   1.277       .  A
C368        O377   1.260       .  A
C368        C438   1.487       .  S
C369        O371   1.266       .  A
C369        C399   1.492       .  S
O372        C375   1.276       .  A
O373        C374   1.255       .  A
C374        C455   1.491       .  S
C375        C382   1.478       .  S
C376        O378   1.264       .  A
C376        C413   1.483       .  S
C381        C382   1.403       .  A
C381        C386   1.411       .  A
C381        H388   1.084       .  S
C382        C383   1.416       .  A
C383        C384   1.400       .  A
C383        N390   1.439       .  S
C384        C385   1.402       .  A
C384       H1045   1.081       .  S
C385        C985   1.490       .  S
C385        C386   1.423       .  A
C386        N387   1.442       .  S
N387        O391   1.260   1_554  A
N387        O392   1.262       .  A
H389       C1040   1.081       .  S
N390        O393   1.263       .  A
N390        O394   1.262       .  A
C395        C396   1.400       .  A
C395        C400   1.403       .  A
C396        C397   1.411       .  A
C397        C398   1.405       .  A
C397        N404   1.429       .  S
C398        C399   1.408       .  A
C398        H403   1.084       .  S
C399        C400   1.418       .  A
C400        N401   1.431       .  S
N401        O405   1.262       .  A
N401        O406   1.263       .  A
N404        O407   1.261       .  A
N404        O408   1.260       .  A
C409        C410   1.399   1_565  A
C409        C414   1.407       .  A
C409        H416   1.081       .  S
C410        C411   1.408       .  A
C411        C412   1.405       .  A
C412        C413   1.407   1_545  A
C412        H417   1.084       .  S
C413        C414   1.424       .  A
C414        N415   1.443       .  S
N415        O419   1.262       .  A
N415        O420   1.259       .  A
N418        O421   1.261       .  A
N418        O422   1.262       .  A
C423        C424   1.409       .  A
C423        C428   1.412       .  A
C423        H430   1.084       .  S
C424        C425   1.415       .  A
C425        C426   1.396       .  A
C425        N432   1.434       .  S
C426        C427   1.406       .  A
C426        H431   1.085       .  S
C427        C428   1.415       .  A
C428        N429   1.434       .  S
N429       O1089   1.263       .  A
N429        O762   1.262       .  A
N432        O435   1.262       .  A
N432        O436   1.262       .  A
O433       N1085   1.263       .  A
O434        N757   1.262       .  A
C437        C438   1.408       .  A
C437        C442   1.410   1_565  A
C438        C439   1.414       .  A
C439        C440   1.397       .  A
C439        N446   1.432       .  S
C440        C441   1.401       .  A
C440        H445   1.085       .  S
C441        C442   1.412   1_565  A
N443        O447   1.262       .  A
N443        O448   1.262       .  A
N446        O449   1.261       .  A
N446        O450   1.262       .  A
C451        C452   1.397       .  A
C451        C456   1.384       .  A
C451        H458   1.084       .  S
C452        C453   1.424       .  A
C453        C454   1.419       .  A
C453        N460   1.442       .  S
C454        C455   1.408       .  A
C454        H459   1.079       .  S
C455        C456   1.416       .  A
C456        N457   1.430       .  S
N457        O461   1.262       .  A
N457        O462   1.263       .  A
N460        O627   1.260       .  A
N460        O464   1.263       .  A
O463        N624   1.260   1_554  A
C465        C466   1.398       .  A
C465        C470   1.406       .  A
C465        H472   1.084       .  S
C466        C467   1.414       .  A
C467        C468   1.399       .  A
C467        N474   1.430       .  S
C468        C469   1.397       .  A
C468        H473   1.084       .  S
C469        C470   1.415       .  A
C470        N471   1.435       .  S
N471        O475   1.261       .  A
N471        O476   1.262       .  A
N474        O477   1.261       .  A
N474        O478   1.261       .  A
C479        C480   1.402       .  A
C479        C484   1.400       .  A
C479       H1142   1.082       .  S
C480       C1006   1.482       .  S
C480        C481   1.418       .  A
C481        C482   1.404       .  A
C481        N488   1.435       .  S
C482        C483   1.402       .  A
C482        H487   1.084       .  S
C483        C484   1.409       .  A
C484        N485   1.426       .  S
N485        O489   1.262       .  A
N485        O490   1.260       .  A
H486       C1135   1.082       .  S
N488        O655   1.263   1_554  A
N488        O492   1.263       .  A
O491        N652   1.263       .  A
C493        O508   1.267       .  A
C493        O495   1.260       .  A
C493       C1205   1.490       .  S
Tb494      O1173   2.314   1_454  S
Tb494       O500   2.334   1_554  S
Tb494      O1002   2.382   1_455  S
Tb494       O505   2.386   1_554  S
Tb494       O515   2.364       .  S
O495       Tb499   2.349       .  S
O496        C507   1.262       .  A
C497        O518   1.268   1_545  A
C497        C574   1.473       .  S
O498        C514   1.266       .  A
Tb499       O503   2.326       .  S
Tb499       O508   2.356       .  S
Tb499      O1158   2.367       .  S
Tb499      O1003   2.328       .  S
O500        C506   1.257       .  A
O502      Tb1155   2.367       .  S
O503        C513   1.262       .  A
C504        O517   1.264       .  A
C504        C605   1.475       .  S
C506        O515   1.263   1_556  A
C506        C633   1.475       .  S
C507        O509   1.262       .  A
C507        C616   1.486       .  S
O510       Tb986   2.382       .  S
O511        C512   1.263       .  A
O511       Tb991   2.328   1_556  S
C512        C560   1.481       .  S
C513        C591   1.493       .  S
C514        O516   1.258       .  A
C514       C1300   1.482       .  S
O517      Tb1150   2.314   1_556  S
C519        O534   1.263       .  A
C519        O521   1.264       .  A
C519        C588   1.488       .  S
Tb520       O542   2.373       .  S
Tb520       O543   2.325       .  S
Tb520       O526   2.366       .  S
Tb520       O536   2.389       .  S
Tb520       O531   2.408       .  S
Tb520       O524   2.345       .  S
Tb520       O544   2.297       .  S
Tb520       O541   2.352       .  S
O521       Tb525   2.357       .  S
O522        C533   1.267       .  A
O522       Tb525   2.359       .  S
C523        O528   1.281       .  A
C523        O544   1.265       .  A
C523        C647   1.474       .  S
O524        C540   1.259       .  A
Tb525       O529   2.317       .  S
Tb525       O534   2.348       .  S
Tb525       O528   2.396       .  S
Tb525       O535   2.349       .  S
Tb525       O537   2.311       .  S
Tb525       O527   2.389       .  S
O526        C532   1.262       .  A
O527        C530   1.277       .  A
O529        C539   1.263       .  A
C530        O543   1.264       .  A
C530        C630   1.471       .  S
O531        C538   1.277       .  A
C532        O541   1.260       .  A
C532        C602   1.487       .  S
C533        O535   1.266       .  A
C533        C563   1.492       .  S
O536        C539   1.276       .  A
O537        C538   1.255       .  A
C538        C619   1.491       .  S
C539        C546   1.478       .  S
C540        O542   1.264       .  A
C540        C577   1.483       .  S
C545        C546   1.403       .  A
C545        C550   1.411       .  A
C545        H552   1.084       .  S
C546        C547   1.416       .  A
C547        C548   1.400       .  A
C547        N554   1.439       .  S
C548        C549   1.402       .  A
C548       H1209   1.081       .  S
C549       C1149   1.490       .  S
C549        C550   1.423       .  A
C550        N551   1.442       .  S
N551        O555   1.260       .  A
N551        O556   1.262       .  A
H553       C1204   1.081       .  S
N554        O557   1.263       .  A
N554        O558   1.262       .  A
C559        C560   1.400       .  A
C559        C564   1.403       .  A
C560        C561   1.411       .  A
C561        C562   1.405       .  A
C561        N568   1.429       .  S
C562        C563   1.408       .  A
C562        H567   1.084       .  S
C563        C564   1.418       .  A
C564        N565   1.431       .  S
N565        O569   1.262       .  A
N565        O570   1.263       .  A
N568        O571   1.261       .  A
N568        O572   1.260       .  A
C573        C574   1.399   1_565  A
C573        C578   1.407       .  A
C573        H580   1.081       .  S
C574        C575   1.408       .  A
C575        C576   1.405       .  A
C576        C577   1.407   1_545  A
C576        H581   1.084       .  S
C577        C578   1.424       .  A
C578        N579   1.443       .  S
N579        O583   1.262       .  A
N579        O584   1.259       .  A
N582        O585   1.261       .  A
N582        O586   1.262       .  A
C587        C588   1.409       .  A
C587        C592   1.412       .  A
C587        H594   1.084       .  S
C588        C589   1.415       .  A
C589        C590   1.396       .  A
C589        N596   1.434       .  S
C590        C591   1.406       .  A
C590        H595   1.085       .  S
C591        C592   1.415       .  A
C592        N593   1.434       .  S
N593       O1253   1.263       .  A
N593        O926   1.262       .  A
N596        O599   1.262       .  A
N596        O600   1.262       .  A
O597       N1249   1.263       .  A
O598        N921   1.262       .  A
C601        C602   1.408       .  A
C601        C606   1.410   1_565  A
C602        C603   1.414       .  A
C603        C604   1.397       .  A
C603        N610   1.432       .  S
C604        C605   1.401       .  A
C604        H609   1.085       .  S
C605        C606   1.412   1_565  A
N607        O611   1.262       .  A
N607        O612   1.262       .  A
N610        O613   1.261       .  A
N610        O614   1.262       .  A
C615        C616   1.397       .  A
C615        C620   1.384       .  A
C615        H622   1.084       .  S
C616        C617   1.424       .  A
C617        C618   1.419       .  A
C617        N624   1.442       .  S
C618        C619   1.408       .  A
C618        H623   1.079       .  S
C619        C620   1.416       .  A
C620        N621   1.430       .  S
N621        O625   1.262       .  A
N621        O626   1.263       .  A
N624        O628   1.263       .  A
C629        C630   1.398       .  A
C629        C634   1.406       .  A
C629        H636   1.084       .  S
C630        C631   1.414       .  A
C631        C632   1.399       .  A
C631        N638   1.430       .  S
C632        C633   1.397       .  A
C632        H637   1.084       .  S
C633        C634   1.415       .  A
C634        N635   1.435       .  S
N635        O639   1.261       .  A
N635        O640   1.262       .  A
N638        O641   1.261       .  A
N638        O642   1.261       .  A
C643        C644   1.402       .  A
C643        C648   1.400       .  A
C643       H1306   1.082       .  S
C644       C1170   1.482       .  S
C644        C645   1.418       .  A
C645        C646   1.404       .  A
C645        N652   1.435       .  S
C646        C647   1.402       .  A
C646        H651   1.084       .  S
C647        C648   1.409       .  A
C648        N649   1.426       .  S
N649        O653   1.262       .  A
N649        O654   1.260       .  A
H650       C1299   1.082       .  S
N652        O656   1.263       .  A
C657        O672   1.267       .  A
C657        O659   1.260       .  A
Tb658       O844   2.333       .  S
Tb658       O664   2.334       .  S
Tb658       O669   2.386       .  S
Tb658       O826   2.359       .  S
Tb658       O846   2.342       .  S
Tb658       O679   2.364       .  S
O659       Tb663   2.349       .  S
O660        C671   1.262       .  A
O660       Tb827   2.314   1_655  S
C661        O994   1.272       .  A
C661        O682   1.268       .  A
C661        C738   1.473       .  S
O662        C678   1.266       .  A
O662       Tb822   2.359       .  S
Tb663       O824   2.314   1_454  S
Tb663       O667   2.326   1_455  S
Tb663       O672   2.356       .  S
Tb663       O837   2.368   1_454  S
Tb663       O829   2.377   1_454  S
O664        C670   1.257       .  A
O665        C996   1.275   1_545  A
O665       Tb827   2.377   1_655  S
O666        C989   1.272       .  A
O667        C677   1.262   1_545  A
C668        O993   1.275       .  A
C668        O681   1.264       .  A
C668        C769   1.475       .  S
O669       C1004   1.272       .  A
C670        O679   1.263       .  A
C670        C797   1.475       .  S
C671        O673   1.262       .  A
C671        C780   1.486       .  S
O673       Tb827   2.368   1_655  S
O674       C1005   1.271       .  A
O675        C676   1.263       .  A
C676        O997   1.272   1_545  A
C676        C724   1.481       .  S
C677       O1002   1.271       .  A
C677        C755   1.493   1_565  S
C678        O680   1.258       .  A
O680       Tb822   2.333       .  S
O682       Tb822   2.342       .  S
C683        O698   1.263       .  A
C683        O685   1.264       .  A
C683        C752   1.488       .  S
Tb684       O706   2.373       .  S
Tb684       O707   2.325       .  S
Tb684       O690   2.367       .  S
Tb684       O700   2.389       .  S
Tb684       O695   2.408       .  S
Tb684       O688   2.345       .  S
Tb684       O708   2.297       .  S
Tb684       O705   2.352       .  S
O685       Tb689   2.357       .  S
O686        C697   1.267       .  A
O686       Tb689   2.359       .  S
C687        O692   1.281       .  A
C687        O708   1.265       .  A
C687        C811   1.474       .  S
O688        C704   1.259       .  A
Tb689       O693   2.317       .  S
Tb689       O698   2.348       .  S
Tb689       O692   2.396       .  S
Tb689       O699   2.349       .  S
Tb689       O701   2.311       .  S
Tb689       O691   2.389       .  S
O690        C696   1.262       .  A
O691        C694   1.277       .  A
O693        C703   1.263       .  A
C694        O707   1.264       .  A
C694        C794   1.471       .  S
O695        C702   1.277       .  A
C696        O705   1.260       .  A
C696        C766   1.487       .  S
C697        O699   1.266       .  A
C697        C727   1.492       .  S
O700        C703   1.276       .  A
O701        C702   1.255       .  A
C702        C783   1.491       .  S
C703        C710   1.478       .  S
C704        O706   1.264       .  A
C704        C741   1.483       .  S
C709        C710   1.403       .  A
C709        C714   1.411       .  A
C709        H716   1.084       .  S
C710        C711   1.416       .  A
C711        C712   1.400       .  A
C711        N718   1.439       .  S
C712        C713   1.402       .  A
C713        C714   1.423       .  A
C714        N715   1.442       .  S
N715        O719   1.260   1_554  A
N715        O720   1.262       .  A
N718        O721   1.263       .  A
N718        O722   1.262       .  A
C723        C724   1.400       .  A
C723        C728   1.403       .  A
C723       H1058   1.085       .  S
C724        C725   1.411       .  A
C725        C726   1.405       .  A
C725        N732   1.429       .  S
C726        C727   1.408       .  A
C726        H731   1.084       .  S
C727        C728   1.418       .  A
C728        N729   1.431       .  S
N729        O733   1.262       .  A
N729        O734   1.263       .  A
H730       C1051   1.085       .  S
N732        O735   1.261       .  A
N732        O736   1.260   1_545  A
C737        C738   1.399       .  A
C737        C742   1.407       .  A
C737        H744   1.081       .  S
C738        C739   1.408       .  A
C739        C740   1.405       .  A
C739       N1074   1.435       .  S
C740        C741   1.407       .  A
C740        H745   1.084       .  S
C741        C742   1.424       .  A
C742        N743   1.443       .  S
N743        O747   1.262       .  A
N743        O748   1.259       .  A
N746       C1067   1.435       .  S
N746        O749   1.261       .  A
N746        O750   1.262       .  A
C751        C752   1.409       .  A
C751        C756   1.412   1_545  A
C751        H758   1.084       .  S
C752        C753   1.415       .  A
C753        C754   1.396       .  A
C753        N760   1.434       .  S
C754        C755   1.406       .  A
C754        H759   1.085       .  S
C755        C756   1.415   1_545  A
C756        N757   1.434       .  S
N760        O763   1.262       .  A
N760        O764   1.262       .  A
C765        C766   1.408       .  A
C765        C770   1.410       .  A
C765       H1100   1.084       .  S
C766        C767   1.414       .  A
C767        C768   1.397       .  A
C767        N774   1.432       .  S
C768        C769   1.401       .  A
C768        H773   1.085       .  S
C769        C770   1.412       .  A
C770       N1099   1.435       .  S
N771       C1098   1.435       .  S
N771        O775   1.262       .  A
N771        O776   1.262       .  A
H772       C1093   1.084   1_545  S
N774        O777   1.261       .  A
N774        O778   1.262       .  A
C779        C780   1.397       .  A
C779        C784   1.384       .  A
C779        H786   1.084       .  S
C780        C781   1.424       .  A
C781        C782   1.419       .  A
C781        N788   1.442       .  S
C782        C783   1.408       .  A
C782        H787   1.079       .  S
C783        C784   1.416       .  A
C784        N785   1.430       .  S
N785        O789   1.262       .  A
N785        O790   1.263       .  A
N788        O955   1.260       .  A
N788        O792   1.263       .  A
O791        N952   1.260   1_554  A
C793        C794   1.398       .  A
C793        C798   1.406       .  A
C793        H800   1.084       .  S
C794        C795   1.414       .  A
C795        C796   1.399       .  A
C795        N802   1.430       .  S
C796        C797   1.397       .  A
C796        H801   1.084       .  S
C797        C798   1.415       .  A
C798        N799   1.435       .  S
N799        O803   1.261       .  A
N799        O804   1.262       .  A
N802        O805   1.261       .  A
N802        O806   1.261       .  A
C807        C808   1.402       .  A
C807        C812   1.400       .  A
C808        C809   1.418       .  A
C809        C810   1.404       .  A
C809        N816   1.435       .  S
C810        C811   1.402       .  A
C810        H815   1.084       .  S
C811        C812   1.409       .  A
C812        N813   1.426       .  S
N813        O817   1.262       .  A
N813        O818   1.260       .  A
N816        O983   1.263   1_554  A
N816        O820   1.263       .  A
O819        N980   1.263       .  A
C821        O836   1.267       .  A
C821        O823   1.260       .  A
Tb822       O828   2.334   1_554  S
Tb822       O833   2.386   1_554  S
Tb822       O843   2.364       .  S
O823       Tb827   2.349       .  S
O824        C835   1.262       .  A
C825       O1158   1.272       .  A
C825        O846   1.268       .  A
C825        C902   1.473       .  S
O826        C842   1.266       .  A
Tb827       O831   2.326   1_455  S
Tb827       O836   2.356       .  S
O828        C834   1.257       .  A
O829       C1160   1.275   1_545  A
O830       C1153   1.272       .  A
O831        C841   1.262   1_545  A
C832       O1157   1.275       .  A
C832        O845   1.264       .  A
C832        C933   1.475       .  S
O833       C1168   1.272       .  A
C834        O843   1.263   1_556  A
C834        C961   1.475       .  S
C835        O837   1.262       .  A
C835        C944   1.486       .  S
O838       C1169   1.271       .  A
O839        C840   1.263       .  A
C840       O1161   1.272   1_545  A
C840        C888   1.481       .  S
C841       O1166   1.271       .  A
C841        C919   1.493   1_565  S
C842        O844   1.258       .  A
C847        O862   1.263       .  A
C847        O849   1.264       .  A
C847        C916   1.488       .  S
Tb848       O870   2.373       .  S
Tb848       O871   2.325       .  S
Tb848       O854   2.367       .  S
Tb848       O864   2.389       .  S
Tb848       O859   2.408       .  S
Tb848       O852   2.345       .  S
Tb848       O872   2.297       .  S
Tb848       O869   2.352       .  S
O849       Tb853   2.357       .  S
O850        C861   1.267       .  A
O850       Tb853   2.359       .  S
C851        O856   1.281       .  A
C851        O872   1.265       .  A
C851        C975   1.474       .  S
O852        C868   1.259       .  A
Tb853       O857   2.317       .  S
Tb853       O862   2.348       .  S
Tb853       O856   2.396       .  S
Tb853       O863   2.349       .  S
Tb853       O865   2.311       .  S
Tb853       O855   2.389       .  S
O854        C860   1.262       .  A
O855        C858   1.277       .  A
O857        C867   1.263       .  A
C858        O871   1.264       .  A
C858        C958   1.471       .  S
O859        C866   1.277       .  A
C860        O869   1.260       .  A
C860        C930   1.487       .  S
C861        O863   1.266       .  A
C861        C891   1.492       .  S
O864        C867   1.276       .  A
O865        C866   1.255       .  A
C866        C947   1.491       .  S
C867        C874   1.478       .  S
C868        O870   1.264       .  A
C868        C905   1.483       .  S
C873        C874   1.403       .  A
C873        C878   1.411       .  A
C873        H880   1.084       .  S
C874        C875   1.416       .  A
C875        C876   1.400       .  A
C875        N882   1.439       .  S
C876        C877   1.402       .  A
C877        C878   1.423       .  A
C878        N879   1.442       .  S
N879        O883   1.260       .  A
N879        O884   1.262       .  A
N882        O885   1.263       .  A
N882        O886   1.262       .  A
C887        C888   1.400       .  A
C887        C892   1.403       .  A
C887       H1222   1.085       .  S
C888        C889   1.411       .  A
C889        C890   1.405       .  A
C889        N896   1.429       .  S
C890        C891   1.408       .  A
C890        H895   1.084       .  S
C891        C892   1.418       .  A
C892        N893   1.431       .  S
N893        O897   1.262       .  A
N893        O898   1.263       .  A
H894       C1215   1.085       .  S
N896        O899   1.261       .  A
N896        O900   1.260   1_545  A
C901        C902   1.399       .  A
C901        C906   1.407       .  A
C901        H908   1.081       .  S
C902        C903   1.408       .  A
C903        C904   1.405       .  A
C903       N1238   1.435       .  S
C904        C905   1.407       .  A
C904        H909   1.084       .  S
C905        C906   1.424       .  A
C906        N907   1.443       .  S
N907        O911   1.262       .  A
N907        O912   1.259       .  A
N910       C1231   1.435       .  S
N910        O913   1.261       .  A
N910        O914   1.262       .  A
C915        C916   1.409       .  A
C915        C920   1.412   1_545  A
C915        H922   1.084       .  S
C916        C917   1.415       .  A
C917        C918   1.396       .  A
C917        N924   1.434       .  S
C918        C919   1.406       .  A
C918        H923   1.085       .  S
C919        C920   1.415   1_545  A
C920        N921   1.434       .  S
N924        O927   1.262       .  A
N924        O928   1.262       .  A
C929        C930   1.408       .  A
C929        C934   1.410       .  A
C929       H1264   1.084       .  S
C930        C931   1.414       .  A
C931        C932   1.397       .  A
C931        N938   1.432       .  S
C932        C933   1.401       .  A
C932        H937   1.085       .  S
C933        C934   1.412       .  A
C934       N1263   1.435       .  S
N935       C1262   1.435       .  S
N935        O939   1.262       .  A
N935        O940   1.262       .  A
H936       C1257   1.084   1_545  S
N938        O941   1.261       .  A
N938        O942   1.262       .  A
C943        C944   1.397       .  A
C943        C948   1.384       .  A
C943        H950   1.084       .  S
C944        C945   1.424       .  A
C945        C946   1.419       .  A
C945        N952   1.442       .  S
C946        C947   1.408       .  A
C946        H951   1.079       .  S
C947        C948   1.416       .  A
C948        N949   1.430       .  S
N949        O953   1.262       .  A
N949        O954   1.263       .  A
N952        O956   1.263       .  A
C957        C958   1.398       .  A
C957        C962   1.406       .  A
C957        H964   1.084       .  S
C958        C959   1.414       .  A
C959        C960   1.399       .  A
C959        N966   1.430       .  S
C960        C961   1.397       .  A
C960        H965   1.084       .  S
C961        C962   1.415       .  A
C962        N963   1.435       .  S
N963        O967   1.261       .  A
N963        O968   1.262       .  A
N966        O969   1.261       .  A
N966        O970   1.261       .  A
C971        C972   1.402       .  A
C971        C976   1.400       .  A
C972        C973   1.418       .  A
C973        C974   1.404       .  A
C973        N980   1.435       .  S
C974        C975   1.402       .  A
C974        H979   1.084       .  S
C975        C976   1.409       .  A
C976        N977   1.426       .  S
N977        O981   1.262       .  A
N977        O982   1.260       .  A
N980        O984   1.263       .  A
C985       O1000   1.267       .  A
C985        O987   1.260       .  A
Tb986      O1172   2.332       .  S
Tb986       O992   2.334       .  S
Tb986       O997   2.386       .  S
Tb986      O1154   2.359       .  S
Tb986      O1174   2.342       .  S
Tb986      O1007   2.364       .  S
O987       Tb991   2.349       .  S
O988        C999   1.262       .  A
O988      Tb1155   2.314   1_655  S
C989       O1010   1.268   1_545  A
C989       C1066   1.473       .  S
O990       C1006   1.266       .  A
O990      Tb1150   2.359       .  S
Tb991      O1152   2.314   1_454  S
Tb991       O995   2.326   1_455  S
Tb991      O1000   2.356       .  S
Tb991      O1165   2.368   1_454  S
Tb991      O1157   2.377   1_454  S
O992        C998   1.257       .  A
O993      Tb1155   2.377   1_655  S
O995       C1005   1.262       .  A
C996       O1009   1.264       .  A
C996       C1097   1.475       .  S
C998       O1007   1.263       .  A
C998       C1125   1.475       .  S
C999       O1001   1.262       .  A
C999       C1108   1.486       .  S
O1001     Tb1155   2.368   1_655  S
O1003      C1004   1.263       .  A
C1004      C1052   1.481       .  S
C1005      C1083   1.493       .  S
C1006      O1008   1.258       .  A
O1008     Tb1150   2.332       .  S
O1010     Tb1150   2.342       .  S
C1011      O1026   1.263       .  A
C1011      O1013   1.264       .  A
C1011      C1080   1.488       .  S
Tb1012     O1034   2.373       .  S
Tb1012     O1035   2.325       .  S
Tb1012     O1018   2.366       .  S
Tb1012     O1028   2.389       .  S
Tb1012     O1023   2.408       .  S
Tb1012     O1016   2.345       .  S
Tb1012     O1036   2.297       .  S
Tb1012     O1033   2.352       .  S
O1013     Tb1017   2.357       .  S
O1014      C1025   1.267       .  A
O1014     Tb1017   2.359       .  S
C1015      O1020   1.281       .  A
C1015      O1036   1.265       .  A
C1015      C1139   1.474       .  S
O1016      C1032   1.259       .  A
Tb1017     O1021   2.317       .  S
Tb1017     O1026   2.348       .  S
Tb1017     O1020   2.396       .  S
Tb1017     O1027   2.349       .  S
Tb1017     O1029   2.311       .  S
Tb1017     O1019   2.389       .  S
O1018      C1024   1.262       .  A
O1019      C1022   1.277       .  A
O1021      C1031   1.263       .  A
C1022      O1035   1.264       .  A
C1022      C1122   1.471       .  S
O1023      C1030   1.277       .  A
C1024      O1033   1.260       .  A
C1024      C1094   1.487       .  S
C1025      O1027   1.266       .  A
C1025      C1055   1.492       .  S
O1028      C1031   1.276       .  A
O1029      C1030   1.255       .  A
C1030      C1111   1.491       .  S
C1031      C1038   1.478       .  S
C1032      O1034   1.264       .  A
C1032      C1069   1.483       .  S
C1037      C1038   1.403       .  A
C1037      C1042   1.411       .  A
C1037      H1044   1.084       .  S
C1038      C1039   1.416       .  A
C1039      C1040   1.400       .  A
C1039      N1046   1.439       .  S
C1040      C1041   1.402       .  A
C1041      C1042   1.423       .  A
C1042      N1043   1.442       .  S
N1043      O1047   1.260   1_554  A
N1043      O1048   1.262       .  A
N1046      O1049   1.263       .  A
N1046      O1050   1.262       .  A
C1051      C1052   1.400       .  A
C1051      C1056   1.403       .  A
C1052      C1053   1.411       .  A
C1053      C1054   1.405       .  A
C1053      N1060   1.429       .  S
C1054      C1055   1.408       .  A
C1054      H1059   1.084       .  S
C1055      C1056   1.418       .  A
C1056      N1057   1.431       .  S
N1057      O1061   1.262       .  A
N1057      O1062   1.263       .  A
N1060      O1063   1.261       .  A
N1060      O1064   1.260       .  A
C1065      C1066   1.399   1_565  A
C1065      C1070   1.407       .  A
C1065      H1072   1.081       .  S
C1066      C1067   1.408       .  A
C1067      C1068   1.405       .  A
C1068      C1069   1.407   1_545  A
C1068      H1073   1.084       .  S
C1069      C1070   1.424       .  A
C1070      N1071   1.443       .  S
N1071      O1075   1.262       .  A
N1071      O1076   1.259       .  A
N1074      O1077   1.261       .  A
N1074      O1078   1.262       .  A
C1079      C1080   1.409       .  A
C1079      C1084   1.412       .  A
C1079      H1086   1.084       .  S
C1080      C1081   1.415       .  A
C1081      C1082   1.396       .  A
C1081      N1088   1.434       .  S
C1082      C1083   1.406       .  A
C1082      H1087   1.085       .  S
C1083      C1084   1.415       .  A
C1084      N1085   1.434       .  S
N1088      O1091   1.262       .  A
N1088      O1092   1.262       .  A
C1093      C1094   1.408       .  A
C1093      C1098   1.410   1_565  A
C1094      C1095   1.414       .  A
C1095      C1096   1.397       .  A
C1095      N1102   1.432       .  S
C1096      C1097   1.401       .  A
C1096      H1101   1.085       .  S
C1097      C1098   1.412   1_565  A
N1099      O1103   1.262       .  A
N1099      O1104   1.262       .  A
N1102      O1105   1.261       .  A
N1102      O1106   1.262       .  A
C1107      C1108   1.397       .  A
C1107      C1112   1.384       .  A
C1107      H1114   1.084       .  S
C1108      C1109   1.424       .  A
C1109      C1110   1.419       .  A
C1109      N1116   1.442       .  S
C1110      C1111   1.408       .  A
C1110      H1115   1.079       .  S
C1111      C1112   1.416       .  A
C1112      N1113   1.430       .  S
N1113      O1117   1.262       .  A
N1113      O1118   1.263       .  A
N1116      O1283   1.260       .  A
N1116      O1120   1.263       .  A
O1119      N1280   1.260   1_554  A
C1121      C1122   1.398       .  A
C1121      C1126   1.406       .  A
C1121      H1128   1.084       .  S
C1122      C1123   1.414       .  A
C1123      C1124   1.399       .  A
C1123      N1130   1.430       .  S
C1124      C1125   1.397       .  A
C1124      H1129   1.084       .  S
C1125      C1126   1.415       .  A
C1126      N1127   1.435       .  S
N1127      O1131   1.261       .  A
N1127      O1132   1.262       .  A
N1130      O1133   1.261       .  A
N1130      O1134   1.261       .  A
C1135      C1136   1.402       .  A
C1135      C1140   1.400       .  A
C1136      C1137   1.418       .  A
C1137      C1138   1.404       .  A
C1137      N1144   1.435       .  S
C1138      C1139   1.402       .  A
C1138      H1143   1.084       .  S
C1139      C1140   1.409       .  A
C1140      N1141   1.426       .  S
N1141      O1145   1.262       .  A
N1141      O1146   1.260       .  A
N1144      O1311   1.263   1_554  A
N1144      O1148   1.263       .  A
O1147      N1308   1.263       .  A
C1149      O1164   1.267       .  A
C1149      O1151   1.260       .  A
Tb1150     O1156   2.334   1_554  S
Tb1150     O1161   2.386   1_554  S
Tb1150     O1171   2.364       .  S
O1151     Tb1155   2.349       .  S
O1152      C1163   1.262       .  A
C1153      O1174   1.268   1_545  A
C1153      C1230   1.473       .  S
O1154      C1170   1.266       .  A
Tb1155     O1159   2.326   1_455  S
Tb1155     O1164   2.356       .  S
O1156      C1162   1.257       .  A
O1159      C1169   1.262       .  A
C1160      O1173   1.264       .  A
C1160      C1261   1.475       .  S
C1162      O1171   1.263   1_556  A
C1162      C1289   1.475       .  S
C1163      O1165   1.262       .  A
C1163      C1272   1.486       .  S
O1167      C1168   1.263       .  A
C1168      C1216   1.481       .  S
C1169      C1247   1.493       .  S
C1170      O1172   1.258       .  A
C1175      O1190   1.263       .  A
C1175      O1177   1.264       .  A
C1175      C1244   1.488       .  S
Tb1176     O1198   2.373       .  S
Tb1176     O1199   2.325       .  S
Tb1176     O1182   2.366       .  S
Tb1176     O1192   2.389       .  S
Tb1176     O1187   2.408       .  S
Tb1176     O1180   2.345       .  S
Tb1176     O1200   2.297       .  S
Tb1176     O1197   2.352       .  S
O1177     Tb1181   2.357       .  S
O1178      C1189   1.267       .  A
O1178     Tb1181   2.359       .  S
C1179      O1184   1.281       .  A
C1179      O1200   1.265       .  A
C1179      C1303   1.474       .  S
O1180      C1196   1.259       .  A
Tb1181     O1185   2.317       .  S
Tb1181     O1190   2.348       .  S
Tb1181     O1184   2.396       .  S
Tb1181     O1191   2.349       .  S
Tb1181     O1193   2.311       .  S
Tb1181     O1183   2.389       .  S
O1182      C1188   1.262       .  A
O1183      C1186   1.277       .  A
O1185      C1195   1.263       .  A
C1186      O1199   1.264       .  A
C1186      C1286   1.471       .  S
O1187      C1194   1.277       .  A
C1188      O1197   1.260       .  A
C1188      C1258   1.487       .  S
C1189      O1191   1.266       .  A
C1189      C1219   1.492       .  S
O1192      C1195   1.276       .  A
O1193      C1194   1.255       .  A
C1194      C1275   1.491       .  S
C1195      C1202   1.478       .  S
C1196      O1198   1.264       .  A
C1196      C1233   1.483       .  S
C1201      C1202   1.403       .  A
C1201      C1206   1.411       .  A
C1201      H1208   1.084       .  S
C1202      C1203   1.416       .  A
C1203      C1204   1.400       .  A
C1203      N1210   1.439       .  S
C1204      C1205   1.402       .  A
C1205      C1206   1.423       .  A
C1206      N1207   1.442       .  S
N1207      O1211   1.260       .  A
N1207      O1212   1.262       .  A
N1210      O1213   1.263       .  A
N1210      O1214   1.262       .  A
C1215      C1216   1.400       .  A
C1215      C1220   1.403       .  A
C1216      C1217   1.411       .  A
C1217      C1218   1.405       .  A
C1217      N1224   1.429       .  S
C1218      C1219   1.408       .  A
C1218      H1223   1.084       .  S
C1219      C1220   1.418       .  A
C1220      N1221   1.431       .  S
N1221      O1225   1.262       .  A
N1221      O1226   1.263       .  A
N1224      O1227   1.261       .  A
N1224      O1228   1.260       .  A
C1229      C1230   1.399   1_565  A
C1229      C1234   1.407       .  A
C1229      H1236   1.081       .  S
C1230      C1231   1.408       .  A
C1231      C1232   1.405       .  A
C1232      C1233   1.407   1_545  A
C1232      H1237   1.084       .  S
C1233      C1234   1.424       .  A
C1234      N1235   1.443       .  S
N1235      O1239   1.262       .  A
N1235      O1240   1.259       .  A
N1238      O1241   1.261       .  A
N1238      O1242   1.262       .  A
C1243      C1244   1.409       .  A
C1243      C1248   1.412       .  A
C1243      H1250   1.084       .  S
C1244      C1245   1.415       .  A
C1245      C1246   1.396       .  A
C1245      N1252   1.434       .  S
C1246      C1247   1.406       .  A
C1246      H1251   1.085       .  S
C1247      C1248   1.415       .  A
C1248      N1249   1.434       .  S
N1252      O1255   1.262       .  A
N1252      O1256   1.262       .  A
C1257      C1258   1.408       .  A
C1257      C1262   1.410   1_565  A
C1258      C1259   1.414       .  A
C1259      C1260   1.397       .  A
C1259      N1266   1.432       .  S
C1260      C1261   1.401       .  A
C1260      H1265   1.085       .  S
C1261      C1262   1.412   1_565  A
N1263      O1267   1.262       .  A
N1263      O1268   1.262       .  A
N1266      O1269   1.261       .  A
N1266      O1270   1.262       .  A
C1271      C1272   1.397       .  A
C1271      C1276   1.384       .  A
C1271      H1278   1.084       .  S
C1272      C1273   1.424       .  A
C1273      C1274   1.419       .  A
C1273      N1280   1.442       .  S
C1274      C1275   1.408       .  A
C1274      H1279   1.079       .  S
C1275      C1276   1.416       .  A
C1276      N1277   1.430       .  S
N1277      O1281   1.262       .  A
N1277      O1282   1.263       .  A
N1280      O1284   1.263       .  A
C1285      C1286   1.398       .  A
C1285      C1290   1.406       .  A
C1285      H1292   1.084       .  S
C1286      C1287   1.414       .  A
C1287      C1288   1.399       .  A
C1287      N1294   1.430       .  S
C1288      C1289   1.397       .  A
C1288      H1293   1.084       .  S
C1289      C1290   1.415       .  A
C1290      N1291   1.435       .  S
N1291      O1295   1.261       .  A
N1291      O1296   1.262       .  A
N1294      O1297   1.261       .  A
N1294      O1298   1.261       .  A
C1299      C1300   1.402       .  A
C1299      C1304   1.400       .  A
C1300      C1301   1.418       .  A
C1301      C1302   1.404       .  A
C1301      N1308   1.435       .  S
C1302      C1303   1.402       .  A
C1302      H1307   1.084       .  S
C1303      C1304   1.409       .  A
C1304      N1305   1.426       .  S
N1305      O1309   1.262       .  A
N1305      O1310   1.260       .  A
N1308      O1312   1.263       .  A
