geometry optimzed in LAMMPS
_audit_creation_date              2020-11-30 
_audit_creation_method            'lammps2cif' 
_symmetry_space_group_name_H-M    'P1' 
_symmetry_Int_Tables_number       1 
_symmetry_cell_setting            triclinic 
loop_ 
_symmetry_equiv_pos_as_xyz 
  x,y,z 
_cell_length_a                    30.62264722 
_cell_length_b                    30.158876344698065 
_cell_length_c                    30.87906027058973 
_cell_angle_alpha                 90.66659141781639 
_cell_angle_beta                  89.54010307888403 
_cell_angle_gamma                 90.47678441060712 
loop_ 
_atom_site_label 
_atom_site_type_symbol 
_atom_site_fract_x 
_atom_site_fract_y 
_atom_site_fract_z 
_atom_site_charge 
C1          C  0.77192137  0.70810645  0.76369708     0.79800
N2          N  0.73736096  0.72750627  0.78416131    -0.78500
C3          C  0.71804502  0.76367474  0.76723863     0.82200
N4          N  0.73288337  0.78016422  0.72919581    -0.78500
C5          C  0.76656389  0.76094269  0.70756388     0.82300
N6          N  0.78605367  0.72463169  0.72494263    -0.80200
C7          C  0.27981770  0.74382629  0.18329053     0.79800
N8          N  0.30805463  0.73991246  0.21655995    -0.78500
C9          C  0.30651151  0.70510765  0.24362181     0.82200
N10         N  0.27567193  0.67337653  0.23699085    -0.78500
C11         C  0.24661760  0.67581919  0.20424533     0.82300
N12         N  0.24882584  0.71160493  0.17763018    -0.80200
C13         C  0.69637221  0.70426529  0.19587954     0.79800
N14         N  0.67443476  0.72159373  0.23035121    -0.78500
C15         C  0.68497657  0.76243698  0.24619453     0.82200
N16         N  0.71769758  0.78598566  0.22732719    -0.78500
C17         C  0.73951525  0.76913633  0.19250925     0.82300
N18         N  0.72897222  0.72823767  0.17729010    -0.80200
C19         C  0.27185407  0.24226251  0.30598011     0.79800
N20         N  0.29547858  0.24416318  0.26878267    -0.78500
C21         C  0.29576471  0.28147071  0.24496316     0.82200
N22         N  0.27108403  0.31632163  0.25729883    -0.78500
C23         C  0.24694748  0.31535569  0.29418486     0.82300
N24         N  0.24759093  0.27788711  0.31830636    -0.80200
C25         C  0.68180108  0.23884240  0.31021568     0.79800
N26         N  0.71851231  0.21388072  0.31328452    -0.78500
C27         C  0.72612444  0.17978512  0.28500756     0.82200
N28         N  0.69810141  0.17204516  0.25195789    -0.78500
C29         C  0.66150530  0.19654632  0.24803401     0.82300
N30         N  0.65373591  0.22940330  0.27743795    -0.80200
C31         C  0.70182939  0.20416099  0.71361170     0.79800
N32         N  0.71846358  0.24116836  0.69490697    -0.78500
C33         C  0.75087805  0.26552167  0.71393870     0.82200
N34         N  0.76709392  0.25238986  0.75269454    -0.78500
C35         C  0.75114728  0.21491223  0.77176368     0.82300
N36         N  0.71835461  0.19185400  0.75230193    -0.80200
C37         C  0.26760698  0.69533332  0.74795783     0.79800
N38         N  0.25177737  0.68162395  0.70893146    -0.78500
C39         C  0.21706414  0.70203142  0.69103632     0.82200
N40         N  0.19848252  0.73684610  0.71213080    -0.78500
C41         C  0.21420305  0.75182426  0.75057440     0.82300
N42         N  0.24885369  0.73076788  0.76844301    -0.80200
Zr43       Zr  0.12862650  0.06985332  0.01006293     2.17500
O44         O  0.19938174  0.10572247  0.99884150    -0.51800
O45         O  0.15660068  0.02998984  0.94409840    -0.75000
O46         O  0.18543696  0.03480125  0.05300044    -0.81800
O47         O  0.06748175  0.17926549  0.99291585    -0.83500
O48         O  0.15411467  0.97876373  0.09095511    -0.79200
O49         O  0.13588130  0.15108057  0.99631655    -0.90800
O50         O  0.10378899  0.98371511  0.91857822    -0.76700
O51         O  0.09942820  0.99615644  0.01236872    -0.86200
O52         O  0.07090787  0.06622762  0.95858408    -0.85900
O53         O  0.10490776  0.05879855  0.08458264    -0.72700
O54         O  0.07379142  0.11958166  0.03625972    -0.84800
Zr55       Zr  0.96109545  0.03591773  0.05942283     2.26400
Zr56       Zr  0.07462616  0.98502370  0.08511465     2.06300
Zr57       Zr  0.01721224  0.11772413  0.98426642     2.10000
Zr58       Zr  0.03978768  0.99339124  0.96319121     1.78800
O59         O  0.99207267  0.18776341  0.95520033    -0.93600
O60         O  0.05564885  0.91430314  0.96204691    -0.41400
O61         O  0.98515364  0.04553639  0.98581187    -0.78100
O62         O  0.01414272  0.98123501  0.03561431    -0.96800
O63         O  0.02108410  0.03672721  0.10811691    -0.90100
O64         O  0.99097649  0.10905129  0.05724937    -0.92900
C65         C  0.14253988  0.99973664  0.91733517     1.00900
C66         C  0.10905012  0.18394063  0.99396996     1.13800
C67         C  0.18770824  0.00111846  0.07802233     1.04600
O68         O  0.08589779  0.90690768  0.06807374    -0.95100
O69         O  0.01750917  0.94919504  0.12854021    -0.90800
O70         O  0.95044000  0.97200934  0.10621279    -0.83900
C71         C  0.97544293  0.94832888  0.12989588     1.11200
O72         O  0.09034897  0.17784118  0.11842178    -0.97000
Zr73       Zr  0.04885640  0.10922281  0.10873667     1.88900
O74         O  0.93784926  0.05987348  0.13212673    -0.73700
O75         O  0.09537636  0.97689172  0.16072630    -0.52900
O76         O  0.09787045  0.10584341  0.17037228    -0.97600
O77         O  0.00420994  0.17219339  0.13154068    -0.54800
O78         O  0.00128426  0.07920102  0.16501445    -0.74200
C79         C  0.96094839  0.06732949  0.16616321     0.98100
O80         O  0.89743282  0.99405059  0.03456800    -0.63000
O81         O  0.01732629  0.10884733  0.90556226    -0.57800
O82         O  0.90407501  0.08752513  0.03230744    -0.94500
O83         O  0.94026476  0.13296650  0.98572611    -0.92900
O84         O  0.01365246  0.01121001  0.89116529    -0.93300
O85         O  0.97955858  0.94565088  0.94033949    -0.92100
C86         C  0.90549981  0.11987804  0.00498116     1.17000
H87         H  0.08219796  0.07272793  0.93000525     0.32900
H88         H  0.00108297  0.95204542  0.03673168     0.43800
H89         H  0.96973824  0.13115144  0.06493430     0.37300
H90         H  0.12893357  0.06164309  0.10447780     0.33800
H91         H  0.06252423  0.90706185  0.93139495     0.25600
H92         H  0.10971974  0.94764459  0.16211186     0.31500
H93         H  0.08849303  0.07905693  0.18630879     0.37400
H94         H  0.03967058  0.02202595  0.87511053     0.31900
H95         H  0.98839731  0.11950298  0.89627940     0.30800
H96         H  0.01286293  0.19601830  0.93187261     0.32400
H97         H  0.01439240  0.17969623  0.16111133     0.31400
H98         H  0.95515930  0.95360341  0.96008695     0.35400
H99         H  0.89283443  0.00403430  0.00452413     0.28100
H100        H  0.21918553  0.08165057  0.98935468     0.32400
H101        H  0.10069648  0.18575673  0.08905722     0.35200
H102        H  0.03842112  0.13120734  0.89466487     0.27800
H103        H  0.90778684  0.96318189  0.03109395     0.40700
H104        H  0.10237893  0.89555829  0.09301499     0.30800
H105        H  0.08393839  0.91176645  0.97708606     0.38400
H106        H  0.97444701  0.15999944  0.13621164     0.30200
H107        H  0.11914761  0.99877682  0.16568306     0.30300
H108        H  0.20967148  0.11436317  0.02809822     0.30600
C109        C  0.15196498  0.28503638  0.94072224     0.02700
C110        C  0.12965868  0.31869022  0.96368182    -0.13500
C111        C  0.10514727  0.30866161  0.00118067     0.00200
C112        C  0.10349295  0.26414876  0.01480418    -0.12000
C113        C  0.12515362  0.23018691  0.99131307     0.02700
C114        C  0.15106028  0.24143129  0.95579131    -0.11400
H115        H  0.12744484  0.35138520  0.94970281     0.08300
H116        H  0.08059246  0.25501824  0.04020229     0.05800
H117        H  0.16533892  0.21525453  0.93600151     0.05600
C118        C  0.88334696  0.07909228  0.26126814     0.02700
C119        C  0.90542999  0.05573297  0.29334463    -0.13500
C120        C  0.94531902  0.03503830  0.28388802     0.00200
C121        C  0.96356579  0.03915257  0.24209590    -0.12000
C122        C  0.94091150  0.06142220  0.20936957     0.02700
C123        C  0.90030757  0.08015660  0.21893132    -0.11400
H124        H  0.89195190  0.05445063  0.32587956     0.08300
H125        H  0.99470297  0.02389850  0.23462377     0.05800
H126        H  0.88307833  0.09799614  0.19411940     0.05600
C127        C  0.27557222  0.92165913  0.11207720     0.02700
C128        C  0.23623999  0.94555151  0.11346901    -0.13500
C129        C  0.23204662  0.98545412  0.09064482     0.00200
C130        C  0.27029585  0.00592655  0.07416655    -0.12000
C131        C  0.31057461  0.98383465  0.07524466     0.02700
C132        C  0.31202318  0.94089323  0.09176438    -0.11400
H133        H  0.20781315  0.93088330  0.12889948     0.08300
H134        H  0.26812650  0.03677897  0.05671309     0.05800
H135        H  0.34145581  0.92165409  0.08713366     0.05600
Zr136      Zr  0.83980590  0.57804497  0.45305607     2.17500
O137        O  0.76764763  0.60789693  0.46987998    -0.51800
O138        O  0.81936066  0.53997360  0.52168801    -0.75000
O139        O  0.78321471  0.53873114  0.41229910    -0.81800
O140        O  0.89607566  0.68957545  0.47319000    -0.83500
O141        O  0.81352540  0.48434958  0.37078146    -0.79200
O142        O  0.82858025  0.65866156  0.46638962    -0.90800
O143        O  0.86959520  0.48892729  0.54042449    -0.76700
O144        O  0.86952009  0.50518793  0.44744897    -0.86200
O145        O  0.89888439  0.57616496  0.50269152    -0.85900
O146        O  0.85910862  0.56744375  0.37726134    -0.72700
O147        O  0.89385274  0.62371514  0.42619340    -0.84800
Zr148      Zr  0.00344574  0.55235146  0.39617169     2.26400
Zr149      Zr  0.89229787  0.49516893  0.37354520     2.06300
Zr150      Zr  0.94876693  0.63072863  0.47553967     2.10000
Zr151      Zr  0.93124067  0.50434869  0.49406565     1.78800
O152        O  0.97529668  0.70107745  0.50565065    -0.93600
O153        O  0.91915565  0.42435913  0.49035623    -0.41400
O154        O  0.98269486  0.56008553  0.47101843    -0.78100
O155        O  0.95456895  0.49420361  0.42052114    -0.96800
O156        O  0.94203595  0.55053073  0.34948608    -0.90100
O157        O  0.97226690  0.62438160  0.40142979    -0.92900
C158        C  0.83313950  0.50841177  0.54614030     1.00900
C159        C  0.85450015  0.69243158  0.47082710     1.13800
C160        C  0.78042268  0.50525568  0.38628117     1.04600
O161        O  0.88447811  0.41694150  0.39095831    -0.95100
O162        O  0.94850039  0.45897467  0.32899681    -0.90800
O163        O  0.01416050  0.48926241  0.34808556    -0.83900
C164        C  0.99046066  0.46156613  0.32650646     1.11200
O165        O  0.86256528  0.68482487  0.34838372    -0.97000
Zr166      Zr  0.91157299  0.62165671  0.35319686     1.88900
O167        O  0.02257698  0.58021683  0.32438916    -0.73700
O168        O  0.86958747  0.48456696  0.29859183    -0.52900
O169        O  0.86289492  0.61063751  0.29165807    -0.97600
O170        O  0.95201157  0.68797610  0.33083652    -0.54800
O171        O  0.95781999  0.59575189  0.29331241    -0.74200
C172        C  0.99845062  0.58584652  0.29098348     0.98100
O173        O  0.07011407  0.51385040  0.41575276    -0.63000
O174        O  0.95260195  0.62128042  0.55390649    -0.57800
O175        O  0.06137661  0.60282908  0.42339029    -0.94500
O176        O  0.02555400  0.64818604  0.47065172    -0.92900
O177        O  0.95918721  0.52209799  0.56587694    -0.93300
O178        O  0.99407749  0.46049590  0.51444030    -0.92100
C179        C  0.06016993  0.63517942  0.45109991     1.17000
H180        H  0.88883375  0.58219788  0.53182480     0.32900
H181        H  0.96885445  0.46585471  0.41804603     0.43800
H182        H  0.99274934  0.64740274  0.39356231     0.37300
H183        H  0.83410947  0.56920896  0.35861065     0.33800
H184        H  0.91641295  0.41494882  0.52088195     0.25600
H185        H  0.85110617  0.45748040  0.29849835     0.31500
H186        H  0.87723733  0.62643613  0.26738231     0.37400
H187        H  0.93340361  0.53153938  0.58307739     0.31900
H188        H  0.98219048  0.63178525  0.56197341     0.30800
H189        H  0.95512925  0.70932162  0.52957573     0.32400
H190        H  0.94124913  0.69432357  0.30140513     0.31400
H191        H  0.01831380  0.47179006  0.49612581     0.35400
H192        H  0.07377959  0.52032994  0.44702995     0.28100
H193        H  0.75056869  0.58267367  0.48162305     0.32400
H194        H  0.86340436  0.69416210  0.31774432     0.35200
H195        H  0.93253090  0.64360980  0.56654705     0.27800
H196        H  0.06247736  0.48188462  0.41473506     0.40700
H197        H  0.86666449  0.40423124  0.36717086     0.30800
H198        H  0.88933218  0.42068502  0.47863103     0.38400
H199        H  0.98241771  0.67818024  0.32573101     0.30200
H200        H  0.84915745  0.50910477  0.29301306     0.30300
H201        H  0.75402653  0.61414960  0.44164005     0.30600
C202        C  0.68968413  0.42318599  0.36293845     0.02700
C203        C  0.65404321  0.44711897  0.37963392    -0.13500
C204        C  0.65800268  0.49206970  0.39166875     0.00200
C205        C  0.69895780  0.51283240  0.38869745    -0.12000
C206        C  0.73597972  0.48851256  0.37553286     0.02700
C207        C  0.73033464  0.44494634  0.35939258    -0.11400
H208        H  0.62356295  0.42980881  0.38612442     0.08300
H209        H  0.70286062  0.54600849  0.40207019     0.05800
H210        H  0.75834258  0.42646155  0.34779910     0.05600
C211        C  0.08446640  0.57749642  0.20364031     0.02700
C212        C  0.06439016  0.54782214  0.17428705    -0.13500
C213        C  0.02019233  0.53515924  0.17976496     0.00200
C214        C  0.99734217  0.55032509  0.21691824    -0.12000
C215        C  0.01822699  0.57767090  0.24785831     0.02700
C216        C  0.06067221  0.59261269  0.23982141    -0.11400
H217        H  0.08310327  0.53489403  0.14711239     0.08300
H218        H  0.96432745  0.53868117  0.22310237     0.05800
H219        H  0.07603024  0.61494078  0.26301271     0.05600
C220        C  0.81635690  0.79192125  0.53061754     0.02700
C221        C  0.81437249  0.74883079  0.51313011    -0.13500
C222        C  0.83730622  0.73807090  0.47531479     0.00200
C223        C  0.85755610  0.77236848  0.45152821    -0.12000
C224        C  0.85952402  0.81626901  0.46769904     0.02700
C225        C  0.83878759  0.82565391  0.50783068    -0.11400
H226        H  0.80071510  0.72231745  0.53260856     0.08300
H227        H  0.87767415  0.76344605  0.42379321     0.05800
H228        H  0.84399392  0.85763145  0.52340603     0.05600
Zr229      Zr  0.95324927  0.91952813  0.38701286     2.17500
O230        O  0.88146877  0.95140031  0.40065485    -0.51800
O231        O  0.93888014  0.89234165  0.31285662    -0.75000
O232        O  0.94187332  0.98351110  0.34094211    -0.81800
O233        O  0.93119070  0.83807977  0.47840372    -0.83500
O234        O  0.00866807  0.00965837  0.31969180    -0.79200
O235        O  0.89861871  0.86652737  0.41906874    -0.90800
O236        O  0.00553195  0.87850830  0.28328202    -0.76700
O237        O  0.01671231  0.92412123  0.34237457    -0.86200
O238        O  0.98732413  0.84908606  0.38897162    -0.85900
O239        O  0.99926876  0.97871873  0.41561791    -0.72700
O240        O  0.97305447  0.91124979  0.46149210    -0.84800
Zr241      Zr  0.11655773  0.89917301  0.44589013     2.26400
Zr242      Zr  0.06317274  0.98097604  0.36936163     2.06300
Zr243      Zr  0.00793165  0.84105294  0.46324059     2.10000
Zr244      Zr  0.05013529  0.85435483  0.34271141     1.78800
O245        O  0.00091806  0.82498762  0.54009981    -0.93600
O246        O  0.10018103  0.86284224  0.28155045    -0.41400
O247        O  0.06946393  0.84386726  0.41620025    -0.78100
O248        O  0.09916209  0.91046325  0.37033119    -0.96800
O249        O  0.08286356  0.96993717  0.44297499    -0.90100
O250        O  0.05515881  0.89668741  0.49380397    -0.92900
C251        C  0.96478205  0.88684843  0.28007342     1.00900
C252        C  0.89807247  0.84328872  0.45423554     1.13800
C253        C  0.96675339  0.00789949  0.31712040     1.04600
O254        O  0.09775929  0.98809764  0.29842075    -0.95100
O255        O  0.13952401  0.00129871  0.38196759    -0.90800
O256        O  0.17239130  0.93962990  0.40687087    -0.83900
C257        C  0.17340596  0.97992565  0.39421340     1.11200
O258        O  0.95174226  0.99656571  0.51670310    -0.97000
Zr259      Zr  0.02100144  0.96766943  0.48949152     1.88900
O260        O  0.13783739  0.94274981  0.51034385    -0.73700
O261        O  0.06253135  0.06079175  0.38229388    -0.52900
O262        O  0.01909714  0.04838037  0.48720611    -0.97600
O263        O  0.00500836  0.94639237  0.56399210    -0.54800
O264        O  0.08586965  0.99305630  0.52797209    -0.74200
C265        C  0.12447310  0.97728730  0.53147023     0.98100
O266        O  0.19110297  0.87927867  0.46483693    -0.63000
O267        O  0.98445406  0.76607304  0.44360542    -0.57800
O268        O  0.12805967  0.81842436  0.45679942    -0.94500
O269        O  0.06325688  0.78777476  0.47744923    -0.92900
O270        O  0.01423068  0.78462934  0.32275990    -0.93300
O271        O  0.10249947  0.79423887  0.33626748    -0.92100
C272        C  0.10398705  0.78525840  0.46864931     1.17000
H273        H  0.96736380  0.82609237  0.37947336     0.32900
H274        H  0.12478504  0.91078383  0.35186752     0.43800
H275        H  0.06382352  0.88949261  0.52284371     0.37300
H276        H  0.98396230  0.00649680  0.41393908     0.33800
H277        H  0.08924831  0.84162171  0.25935593     0.25600
H278        H  0.07449262  0.07358799  0.35525279     0.31500
H279        H  0.04905143  0.05745735  0.47861178     0.37400
H280        H  0.99419714  0.79206673  0.29896779     0.31900
H281        H  0.95506099  0.76879689  0.43100323     0.30800
H282        H  0.99483820  0.79271812  0.54112071     0.32400
H283        H  0.03376600  0.94216644  0.57770790     0.31400
H284        H  0.12557179  0.80191028  0.35742181     0.35400
H285        H  0.18896946  0.86266767  0.49226692     0.28100
H286        H  0.86645983  0.95001989  0.37236829     0.32400
H287        H  0.95935165  0.01707559  0.54081496     0.35200
H288        H  0.00332957  0.75749202  0.41875768     0.27800
H289        H  0.20082900  0.85737616  0.44272652     0.40700
H290        H  0.07741466  0.97316727  0.27808177     0.30800
H291        H  0.09359915  0.89236666  0.26970193     0.38400
H292        H  0.99227885  0.91619147  0.56165381     0.30200
H293        H  0.03130167  0.06902160  0.38244269     0.30300
H294        H  0.88690450  0.98338326  0.40610998     0.30600
C295        C  0.14916647  0.68496959  0.51935484     0.02700
C296        C  0.14804283  0.72886299  0.50487687    -0.13500
C297        C  0.12162311  0.74012681  0.47034259     0.00200
C298        C  0.09917652  0.70644270  0.44746106    -0.12000
C299        C  0.09943345  0.66222863  0.46134553     0.02700
C300        C  0.12511196  0.65155864  0.49738693    -0.11400
H301        H  0.16300446  0.75505223  0.52420523     0.08300
H302        H  0.07596896  0.71581825  0.42289455     0.05800
H303        H  0.12251126  0.61878770  0.51124738     0.05600
C304        C  0.25728996  0.07279655  0.39110216     0.02700
C305        C  0.22165575  0.04570179  0.37909159    -0.13500
C306        C  0.21574912  0.00380488  0.39740220     0.00200
C307        C  0.24854318  0.98720971  0.42414626    -0.12000
C308        C  0.28461007  0.01353917  0.43590128     0.02700
C309        C  0.28763512  0.05709292  0.42098991    -0.11400
H310        H  0.19770319  0.05795186  0.35663720     0.08300
H311        H  0.24478992  0.95461362  0.43815431     0.05800
H312        H  0.31430707  0.07834541  0.43152273     0.05600
C313        C  0.89354577  0.87050907  0.18200634     0.02700
C314        C  0.91548589  0.89600244  0.15093424    -0.13500
C315        C  0.95401239  0.91887960  0.16182523     0.00200
C316        C  0.97057602  0.91518245  0.20411763    -0.12000
C317        C  0.94756375  0.89084628  0.23582864     0.02700
C318        C  0.90890028  0.86909628  0.22457164    -0.11400
H319        H  0.90279650  0.89759973  0.11832429     0.08300
H320        H  0.00037455  0.93263513  0.21284915     0.05800
H321        H  0.89146720  0.84959024  0.24852544     0.05600
Zr322      Zr  0.58154976  0.45175244  0.86050166     2.17500
O323        O  0.61360686  0.46577369  0.79004939    -0.51800
O324        O  0.54523248  0.51984031  0.84096933    -0.75000
O325        O  0.54189399  0.41338342  0.80297515    -0.81800
O326        O  0.68274770  0.49512340  0.92196197    -0.83500
O327        O  0.48743144  0.36987471  0.82970405    -0.79200
O328        O  0.66128929  0.46928015  0.85591298    -0.90800
O329        O  0.48567859  0.52843940  0.88403202    -0.76700
O330        O  0.50902006  0.44385784  0.88850542    -0.86200
O331        O  0.57614165  0.50063338  0.92129188    -0.85900
O332        O  0.57113637  0.37396029  0.87426248    -0.72700
O333        O  0.63327570  0.42524422  0.91001565    -0.84800
Zr334      Zr  0.55350404  0.38550323  0.01732290     2.26400
Zr335      Zr  0.49970964  0.36774430  0.90696089     2.06300
Zr336      Zr  0.62747477  0.47313227  0.97152609     2.10000
Zr337      Zr  0.50469108  0.49046553  0.95070933     1.78800
O338        O  0.70057595  0.47156784  0.00184097    -0.93600
O339        O  0.42514760  0.48832707  0.94984637    -0.41400
O340        O  0.55665587  0.46358439  0.00185691    -0.78100
O341        O  0.49692796  0.41383498  0.97072304    -0.96800
O342        O  0.55462747  0.34138405  0.95323879    -0.90100
O343        O  0.62443764  0.39513997  0.98597767    -0.92900
C344        C  0.50755169  0.53645955  0.84930647     1.00900
C345        C  0.69017176  0.48528731  0.88240219     1.13800
C346        C  0.50843974  0.38780517  0.79829120     1.04600
O347        O  0.42225347  0.38209999  0.89771030    -0.95100
O348        O  0.46231847  0.32269993  0.96103520    -0.90800
O349        O  0.48952634  0.33865984  0.02801640    -0.83900
C350        C  0.46290753  0.31840315  0.00243144     1.11200
O351        O  0.68829737  0.35096340  0.87434911    -0.97000
Zr352      Zr  0.62535568  0.34836717  0.92302300     1.88900
O353        O  0.57956971  0.30968450  0.02707910    -0.73700
O354        O  0.49601170  0.29102385  0.88141129    -0.52900
O355        O  0.62173833  0.29224343  0.86573974    -0.97600
O356        O  0.69197760  0.32584425  0.95914262    -0.54800
O357        O  0.60438128  0.28301822  0.96235754    -0.74200
C358        C  0.59099993  0.27785299  0.00125926     0.98100
O359        O  0.51983182  0.39991159  0.08790869    -0.63000
O360        O  0.62761557  0.55357606  0.97997161    -0.57800
O361        O  0.61051329  0.40770073  0.06985416    -0.94500
O362        O  0.61478531  0.47766566  0.04806980    -0.92900
O363        O  0.52668261  0.56591453  0.97005641    -0.93300
O364        O  0.46569619  0.51733267  0.01470090    -0.92100
C365        C  0.62674589  0.44702283  0.07304575     1.17000
H366        H  0.58240050  0.53097494  0.91358832     0.32900
H367        H  0.46884737  0.41044546  0.98473607     0.43800
H368        H  0.64793142  0.38666247  0.00484846     0.37300
H369        H  0.57305166  0.35635411  0.84806020     0.33800
H370        H  0.41644575  0.51497947  0.93371931     0.25600
H371        H  0.46520354  0.28634171  0.87286445     0.31500
H372        H  0.59821631  0.27160643  0.87494353     0.37400
H373        H  0.50888193  0.58509123  0.95143723     0.31900
H374        H  0.61834208  0.55909541  0.01032408     0.30800
H375        H  0.70848176  0.50298995  0.00736639     0.32400
H376        H  0.69986143  0.29728039  0.94511961     0.31400
H377        H  0.47954117  0.50199692  0.03915771     0.35400
H378        H  0.53073732  0.42967132  0.09663785     0.28100
H379        H  0.58806412  0.47491624  0.77302352     0.32400
H380        H  0.67858167  0.36881791  0.84954871     0.35200
H381        H  0.65877995  0.56245576  0.97896189     0.27800
H382        H  0.48854372  0.40472364  0.08179834     0.40700
H383        H  0.40980909  0.35357812  0.88719883     0.30800
H384        H  0.41773283  0.46318861  0.93032809     0.38400
H385        H  0.68288220  0.31763068  0.98884082     0.30200
H386        H  0.51267010  0.29037273  0.85380636     0.30300
H387        H  0.62141755  0.43615073  0.77832665     0.30600
C388        C  0.43727733  0.35314735  0.70315832     0.02700
C389        C  0.45374065  0.35679600  0.74542802    -0.13500
C390        C  0.49294645  0.37968904  0.75358534     0.00200
C391        C  0.51569476  0.39878290  0.71891007    -0.12000
C392        C  0.49864915  0.39799724  0.67694723     0.02700
C393        C  0.45992576  0.37378199  0.66892246    -0.11400
H394        H  0.43521612  0.34267420  0.77203356     0.08300
H395        H  0.54561284  0.41702660  0.72518957     0.05800
H396        H  0.44623696  0.37264325  0.63668298     0.05600
C397        C  0.57949618  0.18820331  0.08124641     0.02700
C398        C  0.59922148  0.22238924  0.05766576    -0.13500
C399        C  0.58477540  0.23260341  0.01660774     0.00200
C400        C  0.55672270  0.20328086  0.99467830    -0.12000
C401        C  0.53926007  0.16611776  0.01597782     0.02700
C402        C  0.54907416  0.16008586  0.06027533    -0.11400
H403        H  0.62272095  0.24440919  0.07312749     0.08300
H404        H  0.54591766  0.21125734  0.96235775     0.05800
H405        H  0.53294162  0.13403076  0.07832473     0.05600
C406        C  0.79268089  0.54177217  0.84716590     0.02700
C407        C  0.82336918  0.51944813  0.87314296    -0.13500
C408        C  0.81065123  0.48195203  0.89800913     0.00200
C409        C  0.76702125  0.46736215  0.89517507    -0.12000
C410        C  0.73622962  0.49002056  0.87011321     0.02700
C411        C  0.74936694  0.52641499  0.84588984    -0.11400
H412        H  0.85634721  0.53246976  0.87527926     0.08300
H413        H  0.75570912  0.44052609  0.91558239     0.05800
H414        H  0.72498448  0.54530514  0.82890325     0.05600
Zr415      Zr  0.84865716  0.38708078  0.02018035     2.17500
O416        O  0.77746346  0.35620771  0.00042151    -0.51800
O417        O  0.82608187  0.43066528  0.95588492    -0.75000
O418        O  0.79013317  0.42040515  0.06336778    -0.81800
O419        O  0.90647619  0.27596498  0.99728561    -0.83500
O420        O  0.82051028  0.47500963  0.10470647    -0.79200
O421        O  0.83912891  0.30648951  0.00407572    -0.90800
O422        O  0.87987698  0.47675047  0.93248402    -0.76700
O423        O  0.87880353  0.46022642  0.02514714    -0.86200
O424        O  0.90921410  0.38870501  0.97106028    -0.85900
O425        O  0.86719351  0.39771769  0.09618322    -0.72700
O426        O  0.90232983  0.34296154  0.04783991    -0.84800
Zr427      Zr  0.01241778  0.41481041  0.07792394     2.26400
Zr428      Zr  0.90043199  0.47052471  0.09900923     2.06300
Zr429      Zr  0.95849625  0.33547494  0.99976659     2.10000
Zr430      Zr  0.94128858  0.46106818  0.97853511     1.78800
O431        O  0.99296240  0.26336951  0.00429975    -0.93600
O432        O  0.92981226  0.54100085  0.98170100    -0.41400
O433        O  0.99211727  0.40680060  0.00315578    -0.78100
O434        O  0.96375755  0.47184892  0.05229302    -0.96800
O435        O  0.94940931  0.41581789  0.12380861    -0.90100
O436        O  0.98076702  0.34260991  0.07358022    -0.92900
C437        C  0.84083963  0.46142500  0.93051973     1.00900
C438        C  0.86487030  0.27296768  0.99912097     1.13800
C439        C  0.78725800  0.45285874  0.09049512     1.04600
O440        O  0.89312601  0.54715724  0.07627652    -0.95100
O441        O  0.95688016  0.50487077  0.14509307    -0.90800
O442        O  0.02395105  0.47879241  0.12547294    -0.83900
C443        C  0.99891417  0.50437137  0.14803793     1.11200
O444        O  0.86857447  0.28082316  0.12044601    -0.97000
Zr445      Zr  0.91870737  0.34418323  0.12053388     1.88900
O446        O  0.02984459  0.38932951  0.15096645    -0.73700
O447        O  0.87782283  0.49092242  0.17242243    -0.52900
O448        O  0.86930492  0.35164732  0.18259091    -0.97600
O449        O  0.95678644  0.27656383  0.14041668    -0.54800
O450        O  0.96457435  0.36947126  0.18046917    -0.74200
C451        C  0.00471437  0.38171776  0.18376200     0.98100
O452        O  0.08159915  0.45112821  0.05971086    -0.63000
O453        O  0.95669096  0.32406894  0.92155244    -0.57800
O454        O  0.06665219  0.36034591  0.04894216    -0.94500
O455        O  0.03583596  0.33456067  0.98695590    -0.92900
O456        O  0.96572377  0.44074028  0.90577735    -0.93300
O457        O  0.00704574  0.50232966  0.95856572    -0.92100
C458        C  0.06767377  0.33733568  0.01325907     1.17000
H459        H  0.90041997  0.38201350  0.94173558     0.32900
H460        H  0.97803410  0.50044727  0.05466627     0.43800
H461        H  0.00121004  0.32002436  0.08143550     0.37300
H462        H  0.84247116  0.39506495  0.11551653     0.33800
H463        H  0.93412657  0.55119413  0.95157732     0.25600
H464        H  0.85884270  0.51708581  0.16929969     0.31500
H465        H  0.88349908  0.33512231  0.20609876     0.37400
H466        H  0.96376405  0.46838950  0.88894165     0.31900
H467        H  0.98303145  0.33975243  0.91064620     0.30800
H468        H  0.99065823  0.25494779  0.03511935     0.32400
H469        H  0.94374581  0.26794249  0.16857113     0.31400
H470        H  0.03130857  0.48519468  0.97092820     0.35400
H471        H  0.08713480  0.44299985  0.02900853     0.28100
H472        H  0.75967077  0.38200603  0.99210937     0.32400
H473        H  0.86614681  0.27107787  0.15088967     0.35200
H474        H  0.96330251  0.29222128  0.91730089     0.27800
H475        H  0.07504041  0.48320501  0.05887709     0.40700
H476        H  0.89898979  0.56505797  0.10270673     0.30800
H477        H  0.89811730  0.54448741  0.98714582     0.38400
H478        H  0.98678961  0.28619584  0.14797002     0.30200
H479        H  0.85796881  0.46674459  0.18187220     0.30300
H480        H  0.76399617  0.34576873  0.02777583     0.30600
C481        C  0.69630589  0.52230795  0.13877114     0.02700
C482        C  0.73784980  0.50552733  0.12974671    -0.13500
C483        C  0.74286649  0.46575531  0.10623145     0.00200
C484        C  0.70491794  0.44172359  0.09379776    -0.12000
C485        C  0.66288574  0.45875510  0.10245614     0.02700
C486        C  0.65911328  0.49862499  0.12594375    -0.11400
H487        H  0.76615922  0.52551626  0.13823411     0.08300
H488        H  0.70797001  0.41257489  0.07318362     0.05800
H489        H  0.62733115  0.51384308  0.12991926     0.05600
C490        C  0.08227970  0.39372201  0.27867896     0.02700
C491        C  0.06457431  0.37990756  0.23878173    -0.13500
C492        C  0.02168151  0.39110737  0.22779735     0.00200
C493        C  0.99612225  0.41557555  0.25775729    -0.12000
C494        C  0.01418997  0.43090759  0.29701670     0.02700
C495        C  0.05735666  0.41994820  0.30686104    -0.11400
H496        H  0.08443007  0.36100528  0.21610022     0.08300
H497        H  0.96334563  0.42531329  0.24919129     0.05800
H498        H  0.07199533  0.43214386  0.33660001     0.05600
C499        C  0.81673331  0.17572922  0.94112182     0.02700
C500        C  0.84062591  0.14061098  0.95954443    -0.13500
C501        C  0.86705270  0.14840385  0.99630816     0.00200
C502        C  0.86941787  0.19198922  0.01318183    -0.12000
C503        C  0.84725156  0.22735210  0.99380823     0.02700
C504        C  0.81891748  0.21832225  0.95976717    -0.11400
H505        H  0.84238282  0.10899879  0.94261939     0.08300
H506        H  0.89352000  0.19959470  0.03779950     0.05800
H507        H  0.80380538  0.24578754  0.94332197     0.05600
Zr508      Zr  0.39553067  0.01210422  0.83716821     2.17500
O509        O  0.36053285  0.98899786  0.76977070    -0.51800
O510        O  0.43765511  0.94698934  0.81118677    -0.75000
O511        O  0.42636029  0.05901544  0.78078258    -0.81800
O512        O  0.30661195  0.95175916  0.88626601    -0.83500
O513        O  0.47932921  0.10122588  0.81232754    -0.79200
O514        O  0.31569262  0.00177960  0.83400540    -0.90800
O515        O  0.48254420  0.92278280  0.86379924    -0.76700
O516        O  0.46713914  0.01652936  0.86729607    -0.86200
O517        O  0.39713053  0.96066852  0.89558358    -0.85900
O518        O  0.40504666  0.08906024  0.85962622    -0.72700
O519        O  0.34241279  0.03750800  0.88875331    -0.84800
Zr520      Zr  0.41959402  0.06619878  0.00091980     2.26400
Zr521      Zr  0.47647247  0.09154450  0.89148103     2.06300
Zr522      Zr  0.34298192  0.98578226  0.94630761     2.10000
Zr523      Zr  0.46773393  0.96727857  0.92717017     1.78800
O524        O  0.26978525  0.00512004  0.97109413    -0.93600
O525        O  0.54668493  0.97159798  0.91716848    -0.41400
O526        O  0.41334474  0.98985015  0.97844822    -0.78100
O527        O  0.47717889  0.04212766  0.95210933    -0.96800
O528        O  0.42154162  0.11530959  0.94097834    -0.90100
O529        O  0.34853637  0.06182306  0.96932000    -0.92900
C530        C  0.46787667  0.92125086  0.82517402     1.00900
C531        C  0.29152367  0.97511413  0.85597160     1.13800
C532        C  0.45742829  0.08782435  0.77899456     1.04600
O533        O  0.55157002  0.06749146  0.88127851    -0.95100
O534        O  0.50992143  0.13444408  0.95111626    -0.90800
O535        O  0.48190321  0.11322873  0.01637174    -0.83900
C536        C  0.50841597  0.13598202  0.99296031     1.11200
O537        O  0.29141090  0.11721135  0.85973986    -0.97000
Zr538      Zr  0.35107951  0.11277070  0.91118561     1.88900
O539        O  0.39204080  0.13826859  0.02256573    -0.73700
O540        O  0.49822124  0.16691539  0.87263375    -0.52900
O541        O  0.35405835  0.17789546  0.86523933    -0.97600
O542        O  0.28379175  0.13050609  0.95021358    -0.54800
O543        O  0.37569350  0.17180958  0.95949557    -0.74200
C544        C  0.38581327  0.17281009  0.99970304     0.98100
O545        O  0.45251895  0.04573653  0.06946792    -0.63000
O546        O  0.31582041  0.91170967  0.96321297    -0.57800
O547        O  0.36270184  0.03873132  0.05068933    -0.94500
O548        O  0.36185071  0.97215547  0.01990326    -0.92900
O549        O  0.45033625  0.89159545  0.94832566    -0.93300
O550        O  0.50661351  0.94264959  0.99094564    -0.92100
C551        C  0.34762496  0.99903354  0.04846146     1.17000
H552        H  0.39116425  0.93062946  0.88588855     0.32900
H553        H  0.50498812  0.04428994  0.96651599     0.43800
H554        H  0.32555412  0.06975577  0.98952779     0.37300
H555        H  0.40209119  0.10975760  0.83636198     0.33800
H556        H  0.55684648  0.94064992  0.91964966     0.25600
H557        H  0.52414933  0.16366079  0.85351307     0.31500
H558        H  0.38292952  0.19164276  0.87105839     0.37400
H559        H  0.42540830  0.89457391  0.96873429     0.31900
H560        H  0.34217115  0.89478226  0.97082136     0.30800
H561        H  0.25218766  0.97767081  0.96743960     0.32400
H562        H  0.27205121  0.15674026  0.93538898     0.31400
H563        H  0.49135311  0.95712370  0.01564291     0.35400
H564        H  0.44340531  0.01453724  0.07393797     0.28100
H565        H  0.37995064  0.96669760  0.75621601     0.32400
H566        H  0.30127898  0.09956046  0.83430651     0.35200
H567        H  0.29955423  0.91506774  0.99088965     0.27800
H568        H  0.48425986  0.04387449  0.06343643     0.40700
H569        H  0.56929690  0.09496270  0.88409806     0.30800
H570        H  0.55089537  0.97847718  0.88613857     0.38400
H571        H  0.29321494  0.14216463  0.97877719     0.30200
H572        H  0.47488454  0.17778202  0.85355239     0.30300
H573        H  0.36195886  0.01491713  0.75042268     0.30600
C574        C  0.52824168  0.13421578  0.68992739     0.02700
C575        C  0.50867044  0.12943850  0.73077940    -0.13500
C576        C  0.46948444  0.10566402  0.73562318     0.00200
C577        C  0.44606898  0.09313498  0.69810652    -0.12000
C578        C  0.46499693  0.09761029  0.65665667     0.02700
C579        C  0.50644075  0.11800429  0.65301875    -0.11400
H580        H  0.52679990  0.13994380  0.75916407     0.08300
H581        H  0.41536980  0.07542321  0.70129657     0.05800
H582        H  0.52318379  0.11818317  0.62195711     0.05600
C583        C  0.38411647  0.26536778  0.08196086     0.02700
C584        C  0.41242245  0.29636935  0.06270787    -0.13500
C585        C  0.43112895  0.28735138  0.02189446     0.00200
C586        C  0.42033057  0.24758871  0.00024505    -0.12000
C587        C  0.39323911  0.21604818  0.02026231     0.02700
C588        C  0.37601254  0.22468354  0.06133103    -0.11400
H589        H  0.41939902  0.32750317  0.07922756     0.08300
H590        H  0.43488300  0.24008252  0.96890508     0.05800
H591        H  0.35525470  0.20016844  0.07688395     0.05600
C592        C  0.18721037  0.92026772  0.83026027     0.02700
C593        C  0.22960478  0.93642106  0.82484622    -0.13500
C594        C  0.24451605  0.97224238  0.84923707     0.00200
C595        C  0.21582468  0.99471317  0.87787929    -0.12000
C596        C  0.17227626  0.98005165  0.88325259     0.02700
C597        C  0.15831453  0.94235825  0.85875294    -0.11400
H598        H  0.25266714  0.91778433  0.80506453     0.08300
H599        H  0.22833466  0.02147957  0.89802785     0.05800
H600        H  0.12591070  0.92849293  0.86342381     0.05600
Zr601      Zr  0.58621942  0.52088857  0.63414126     2.17500
O602        O  0.62680057  0.50644983  0.69961970    -0.51800
O603        O  0.55113528  0.45182767  0.65586583    -0.75000
O604        O  0.54410157  0.55667418  0.69146007    -0.81800
O605        O  0.69356805  0.50141531  0.57655605    -0.83500
O606        O  0.48698259  0.59257911  0.66185963    -0.79200
O607        O  0.66625569  0.51547644  0.64384858    -0.90800
O608        O  0.49883041  0.43159401  0.60778390    -0.76700
O609        O  0.51447047  0.52158869  0.60487571    -0.86200
O610        O  0.58625827  0.46965163  0.57455988    -0.85900
O611        O  0.57256636  0.59733253  0.61731432    -0.72700
O612        O  0.63475698  0.54986565  0.58234462    -0.84800
Zr613      Zr  0.55757050  0.57897361  0.47358598     2.26400
Zr614      Zr  0.50168447  0.59629200  0.58459558     2.06300
Zr615      Zr  0.63702419  0.49958780  0.52367543     2.10000
Zr616      Zr  0.51507388  0.47348304  0.54339553     1.78800
O617        O  0.70718431  0.50417123  0.48626908    -0.93600
O618        O  0.43563281  0.47103225  0.54816739    -0.41400
O619        O  0.56646593  0.50269436  0.49278457    -0.78100
O620        O  0.50226877  0.54855645  0.52179837    -0.96800
O621        O  0.55497181  0.62545513  0.53638605    -0.90100
O622        O  0.62893298  0.57624048  0.50441450    -0.92900
C623        C  0.51787555  0.42830535  0.64433394     1.00900
C624        C  0.69824272  0.50869870  0.61718900     1.13800
C625        C  0.50805813  0.57801627  0.69444527     1.04600
O626        O  0.42397456  0.57944219  0.59081071    -0.95100
O627        O  0.46570269  0.63841514  0.52903931    -0.90800
O628        O  0.49303677  0.62308047  0.46173452    -0.83900
C629        C  0.46650944  0.64295104  0.48768034     1.11200
O630        O  0.68376451  0.62897679  0.61945810    -0.97000
Zr631      Zr  0.62543355  0.62503229  0.56631466     1.88900
O632        O  0.58254630  0.65441785  0.45778469    -0.73700
O633        O  0.49310848  0.67188100  0.61210846    -0.52900
O634        O  0.61771439  0.68709098  0.61694064    -0.97600
O635        O  0.69388559  0.64665117  0.53120500    -0.54800
O636        O  0.60215992  0.68521614  0.52228020    -0.74200
C637        C  0.59105061  0.68790259  0.48264768     0.98100
O638        O  0.52305902  0.56028273  0.40465981    -0.63000
O639        O  0.65364489  0.42065727  0.52277333    -0.57800
O640        O  0.61200754  0.55095720  0.42066163    -0.94500
O641        O  0.61219753  0.48529030  0.45154452    -0.92900
O642        O  0.54069158  0.40007846  0.52215723    -0.93300
O643        O  0.48087796  0.44423999  0.47799874    -0.92100
C644        C  0.62482745  0.51056485  0.42143238     1.17000
H645        H  0.59393940  0.43995997  0.58309440     0.32900
H646        H  0.47416031  0.54947081  0.50792235     0.43800
H647        H  0.65143387  0.58544138  0.48421626     0.37300
H648        H  0.57303361  0.61600885  0.64294359     0.33800
H649        H  0.42815168  0.43915270  0.55073682     0.25600
H650        H  0.46216407  0.67364381  0.62146994     0.31500
H651        H  0.58890655  0.69995471  0.61036993     0.37400
H652        H  0.52186977  0.37917842  0.53848259     0.31900
H653        H  0.65544848  0.41250678  0.49164982     0.30800
H654        H  0.71540833  0.47312181  0.47974723     0.32400
H655        H  0.70213358  0.67513943  0.54529949     0.31400
H656        H  0.48204653  0.46919295  0.45744835     0.35400
H657        H  0.53379789  0.53033097  0.39693178     0.28100
H658        H  0.61981345  0.47511875  0.70606449     0.32400
H659        H  0.67126382  0.61481656  0.64559819     0.35200
H660        H  0.68411704  0.41890441  0.53302058     0.27800
H661        H  0.49183702  0.55522022  0.41178915     0.40700
H662        H  0.41340285  0.59834731  0.61507184     0.30800
H663        H  0.42868902  0.48382054  0.57705891     0.38400
H664        H  0.68584818  0.65499947  0.50141686     0.30200
H665        H  0.50992344  0.67337123  0.63934759     0.30300
H666        H  0.61264277  0.52429457  0.72274684     0.30600
C667        C  0.60310742  0.78579028  0.40987103     0.02700
C668        C  0.58069296  0.81884999  0.43344979    -0.13500
C669        C  0.56098975  0.80871927  0.47373329     0.00200
C670        C  0.56532341  0.76550367  0.48983799    -0.12000
C671        C  0.58694193  0.73260768  0.46560475     0.02700
C672        C  0.60518103  0.74272955  0.42567875    -0.11400
H673        H  0.57801770  0.85172341  0.42001978     0.08300
H674        H  0.55057023  0.75672616  0.52062613     0.05800
H675        H  0.62197295  0.71720837  0.40709191     0.05600
C676        C  0.42857526  0.60787821  0.78497277     0.02700
C677        C  0.44943155  0.60684726  0.74436726    -0.13500
C678        C  0.48903224  0.58465230  0.73836304     0.00200
C679        C  0.50855479  0.56488764  0.77408415    -0.12000
C680        C  0.48808291  0.56443486  0.81504436     0.02700
C681        C  0.44766967  0.58627590  0.82037534    -0.11400
H682        H  0.43367307  0.62211794  0.71705523     0.08300
H683        H  0.53893683  0.54736863  0.76922906     0.05800
H684        H  0.43065332  0.58558762  0.85124495     0.05600
C685        C  0.78245768  0.43874918  0.63796463     0.02700
C686        C  0.75415279  0.47061303  0.65583075    -0.13500
C687        C  0.74369599  0.50741990  0.63157940     0.00200
C688        C  0.77422747  0.52278281  0.60097740    -0.12000
C689        C  0.80608353  0.49413696  0.58416597     0.02700
C690        C  0.80907125  0.45095489  0.60201353    -0.11400
H691        H  0.73240591  0.46145698  0.68219859     0.08300
H692        H  0.76749591  0.55339265  0.58429737     0.05800
H693        H  0.83017761  0.42664134  0.58678795     0.05600
Zr694      Zr  0.38412116  0.01152591  0.55310176     2.17500
O695        O  0.39717221  0.08551971  0.52455906    -0.51800
O696        O  0.30863859  0.02230431  0.57831416    -0.75000
O697        O  0.33834339  0.02238754  0.49028983    -0.81800
O698        O  0.47772587  0.03888588  0.60823833    -0.83500
O699        O  0.32293876  0.95322709  0.46378501    -0.79200
O700        O  0.41053849  0.06570693  0.60812718    -0.90800
O701        O  0.28302731  0.95445680  0.59783141    -0.76700
O702        O  0.34149292  0.94541405  0.55201798    -0.86200
O703        O  0.39096694  0.97906360  0.62297926    -0.85900
O704        O  0.41291993  0.96458388  0.49536287    -0.72700
O705        O  0.46069872  0.99483911  0.55808004    -0.84800
Zr706      Zr  0.45055269  0.84978724  0.57513224     2.26400
Zr707      Zr  0.36879915  0.89806431  0.49682270     2.06300
Zr708      Zr  0.46754568  0.96255454  0.62774903     2.10000
Zr709      Zr  0.34651853  0.91385426  0.62108111     1.78800
O710        O  0.53538731  0.99315486  0.65642225    -0.93600
O711        O  0.28949594  0.85722620  0.61700940    -0.41400
O712        O  0.42206635  0.89774191  0.63069591    -0.78100
O713        O  0.37374025  0.86406176  0.56643006    -0.96800
O714        O  0.44393769  0.88091657  0.50500463    -0.90100
O715        O  0.49699484  0.91374599  0.57324660    -0.92900
C716        C  0.27736009  0.99491153  0.58716695     1.00900
C717        C  0.45022716  0.06735797  0.62143273     1.13800
C718        C  0.31768177  0.99543552  0.46506579     1.04600
O719        O  0.29578218  0.86549766  0.49846809    -0.95100
O720        O  0.37896156  0.81989093  0.47987498    -0.90800
O721        O  0.41179358  0.79021277  0.53833342    -0.83900
C722        C  0.39369209  0.78686191  0.50108372     1.11200
O723        O  0.51440114  0.01545230  0.47354539    -0.97000
Zr724      Zr  0.48838002  0.94548417  0.50344306     1.88900
O725        O  0.51547471  0.82911921  0.53341598    -0.73700
O726        O  0.37511880  0.88954030  0.41846294    -0.52900
O727        O  0.48198709  0.94438138  0.42482443    -0.97600
O728        O  0.56447947  0.96356067  0.51923216    -0.54800
O729        O  0.52600667  0.87882081  0.47974831    -0.74200
C730        C  0.53288314  0.84122142  0.49732513     0.98100
O731        O  0.46625494  0.77454339  0.59838194    -0.63000
O732        O  0.44867642  0.97958745  0.70286392    -0.57800
O733        O  0.47035994  0.84598801  0.65209329    -0.94500
O734        O  0.51230849  0.90677742  0.65911173    -0.92900
O735        O  0.32332448  0.95364721  0.68623502    -0.93300
O736        O  0.34440824  0.86540919  0.68361376    -0.92100
C737        C  0.49579827  0.87134880  0.67427479     1.17000
H738        H  0.38085680  0.99921894  0.64532300     0.32900
H739        H  0.35620884  0.83736749  0.56744337     0.43800
H740        H  0.52692046  0.90630865  0.57854983     0.37300
H741        H  0.40971537  0.97908886  0.46790294     0.33800
H742        H  0.26609677  0.86891469  0.63611945     0.25600
H743        H  0.34468029  0.88649611  0.40819865     0.31500
H744        H  0.47297649  0.91362447  0.41743804     0.37400
H745        H  0.29115849  0.95004828  0.68713071     0.31900
H746        H  0.47421468  0.99565607  0.71492944     0.30800
H747        H  0.55615357  0.99207643  0.63170617     0.32400
H748        H  0.57983525  0.93481446  0.51965397     0.31400
H749        H  0.35876385  0.83782160  0.67350175     0.35400
H750        H  0.49602382  0.77571197  0.61067133     0.28100
H751        H  0.36824900  0.09997591  0.52509938     0.32400
H752        H  0.53600126  0.00735448  0.45081696     0.35200
H753        H  0.42553763  0.00200432  0.70190908     0.27800
H754        H  0.44656563  0.76888136  0.62334345     0.40700
H755        H  0.27651181  0.89002293  0.50796259     0.30800
H756        H  0.27750615  0.85965354  0.58747112     0.38400
H757        H  0.56439494  0.97396248  0.54975282     0.30200
H758        H  0.38500988  0.91888837  0.40798214     0.30300
H759        H  0.40401380  0.08089852  0.49344913     0.30600
C760        C  0.39058744  0.70231033  0.41089878     0.02700
C761        C  0.42197640  0.67251481  0.42622162    -0.13500
C762        C  0.43534345  0.67465035  0.46962387     0.00200
C763        C  0.42151104  0.71001576  0.49590963    -0.12000
C764        C  0.39411962  0.74265893  0.47976704     0.02700
C765        C  0.37520307  0.73591570  0.43909214    -0.11400
H766        H  0.43601021  0.64788968  0.40460404     0.08300
H767        H  0.43530885  0.71409166  0.52792945     0.05800
H768        H  0.35139424  0.75938561  0.42776108     0.05600
C769        C  0.17768438  0.06415851  0.60707102     0.02700
C770        C  0.22078393  0.04935355  0.60645038    -0.13500
C771        C  0.23208915  0.01044892  0.58488276     0.00200
C772        C  0.20008370  0.98618728  0.56214999    -0.12000
C773        C  0.15654887  0.00120417  0.56017614     0.02700
C774        C  0.14543617  0.04048257  0.58350757    -0.11400
H775        H  0.24561642  0.06777726  0.62414146     0.08300
H776        H  0.20967268  0.95626203  0.54492625     0.05800
H777        H  0.11234837  0.05285427  0.58306819     0.05600
C778        C  0.55109305  0.84042701  0.77751604     0.02700
C779        C  0.52588050  0.86436438  0.80793909    -0.13500
C780        C  0.48934882  0.88913784  0.79465753     0.00200
C781        C  0.47727964  0.88694529  0.75086720    -0.12000
C782        C  0.50258255  0.86334914  0.72037399     0.02700
C783        C  0.53938536  0.84056032  0.73372638    -0.11400
H784        H  0.53621587  0.86533812  0.84140619     0.08300
H785        H  0.44961590  0.90568435  0.73987025     0.05800
H786        H  0.56010191  0.82442321  0.70974820     0.05600
C787        C  0.20955631  0.22204780  0.70346524     0.79800
N788        N  0.19315194  0.23602349  0.74236519    -0.78500
C789        C  0.21320745  0.26917697  0.76521601     0.82200
N790        N  0.24983236  0.28810576  0.74878466    -0.78500
C791        C  0.26710270  0.27399113  0.71063459     0.82300
N792        N  0.24721962  0.24062416  0.68808006    -0.80200
C793        C  0.18555169  0.14217213  0.70193325    -0.02300
C794        C  0.18996427  0.18315875  0.68053558     0.07400
C795        C  0.17968421  0.18547958  0.63606911    -0.02400
C796        C  0.16986328  0.14645979  0.61224701    -0.02400
C797        C  0.16924366  0.10507391  0.63293211     0.07500
C798        C  0.17455103  0.10351329  0.67826079    -0.02600
Br799      Br  0.17136781  0.04711231  0.70709110    -0.01200
Br800      Br  0.20014060  0.13719256  0.76247893    -0.01200
Br801      Br  0.16200337  0.14887394  0.55039792    -0.01200
Br802      Br  0.18031183  0.24196420  0.60741935    -0.01200
C803        C  0.38953536  0.28523887  0.70696495    -0.02300
C804        C  0.39451060  0.33048139  0.69631198     0.07400
C805        C  0.35744491  0.35505849  0.68428436    -0.02400
C806        C  0.31562700  0.33528044  0.68575345    -0.02400
C807        C  0.31065621  0.29083429  0.69833548     0.07500
C808        C  0.34772368  0.26549631  0.70788713    -0.02600
Br809      Br  0.34075149  0.20488651  0.72654085    -0.01200
Br810      Br  0.43982418  0.25053226  0.72212373    -0.01200
Br811      Br  0.26442208  0.36973314  0.67345198    -0.01200
Br812      Br  0.36284804  0.41696899  0.66970396    -0.01200
C813        C  0.21269393  0.29234024  0.88700914    -0.02300
C814        C  0.16765142  0.29161909  0.89583986     0.07400
C815        C  0.13769112  0.28873894  0.86144705    -0.02400
C816        C  0.15282016  0.28506065  0.81843245    -0.02400
C817        C  0.19797537  0.28126891  0.80964693     0.07500
C818        C  0.22809254  0.28659033  0.84420955    -0.02600
Br819      Br  0.29052487  0.28281830  0.83498149    -0.01200
Br820      Br  0.25304738  0.29908051  0.93445681    -0.01200
Br821      Br  0.11138595  0.28686414  0.77163774    -0.01200
Br822      Br  0.07570870  0.28605065  0.87347018    -0.01200
C823        C  0.22950885  0.68849028  0.61135305    -0.02300
C824        C  0.20092357  0.68886837  0.64756681     0.07400
C825        C  0.15580094  0.68145902  0.64135119    -0.02400
C826        C  0.13900304  0.67688277  0.59922282    -0.02400
C827        C  0.16741797  0.67796994  0.56300600     0.07500
C828        C  0.21274895  0.68245435  0.56930020    -0.02600
Br829      Br  0.25141657  0.68359613  0.51959495    -0.01200
Br830      Br  0.29093402  0.70152850  0.61821507    -0.01200
Br831      Br  0.07650289  0.67426344  0.59114507    -0.01200
Br832      Br  0.11652907  0.67866409  0.69057348    -0.01200
C833        C  0.19060852  0.79633946  0.81627049    -0.02300
C834        C  0.19626624  0.79314306  0.77084171     0.07400
C835        C  0.18695859  0.83077165  0.74531535    -0.02400
C836        C  0.17697242  0.87164394  0.76547837    -0.02400
C837        C  0.17790091  0.87600079  0.81084218     0.07500
C838        C  0.18270354  0.83783157  0.83624724    -0.02600
Br839      Br  0.18243897  0.84307580  0.89861242    -0.01200
Br840      Br  0.19246746  0.74385366  0.85134854    -0.01200
Br841      Br  0.16454703  0.92308902  0.73122060    -0.01200
Br842      Br  0.19124560  0.82897029  0.68284322    -0.01200
C843        C  0.30858390  0.62566940  0.76513670    -0.02300
C844        C  0.30633523  0.67259646  0.76641234     0.07400
C845        C  0.34282629  0.69715433  0.78188383    -0.02400
C846        C  0.38169641  0.67513076  0.79280446    -0.02400
C847        C  0.38490092  0.62884064  0.78754551     0.07500
C848        C  0.34781513  0.60406545  0.77517708    -0.02600
Br849      Br  0.35194787  0.54040952  0.76929322    -0.01200
Br850      Br  0.25815326  0.59027474  0.74936988    -0.01200
Br851      Br  0.43190536  0.70837038  0.81263415    -0.01200
Br852      Br  0.34219266  0.76118038  0.78396298    -0.01200
C853        C  0.64990793  0.13853339  0.71204208    -0.02300
C854        C  0.66155462  0.18113153  0.69641987     0.07400
C855        C  0.63121523  0.20295919  0.66928704    -0.02400
C856        C  0.58758824  0.18755504  0.66667933    -0.02400
C857        C  0.57484846  0.14836502  0.68776245     0.07500
C858        C  0.60678015  0.12261852  0.70819035    -0.02600
Br859      Br  0.59138249  0.06522451  0.73159474    -0.01200
Br860      Br  0.69319305  0.09953574  0.73599335    -0.01200
Br861      Br  0.54445340  0.22183877  0.63671272    -0.01200
Br862      Br  0.64820538  0.25143992  0.63230871    -0.07600
C863        C  0.73809639  0.19090007  0.84900314    -0.02300
C864        C  0.76755869  0.19990457  0.81448025     0.07400
C865        C  0.81263409  0.19318067  0.82075213    -0.02400
C866        C  0.82829258  0.17988001  0.86133389    -0.02400
C867        C  0.79916927  0.17351972  0.89640104     0.07500
C868        C  0.75395230  0.17789998  0.88972349    -0.02600
Br869      Br  0.71408466  0.16822465  0.93748273    -0.01200
Br870      Br  0.67616091  0.19991485  0.84232471    -0.01200
Br871      Br  0.89042199  0.17374686  0.86980544    -0.01200
Br872      Br  0.85359197  0.20181771  0.77394286    -0.01200
C873        C  0.81261285  0.36598990  0.66701514    -0.02300
C874        C  0.77702531  0.39194064  0.65343666     0.07400
C875        C  0.73414086  0.37488352  0.65977786    -0.02400
C876        C  0.72700401  0.33779904  0.68560538    -0.02400
C877        C  0.76178947  0.30978949  0.69570083     0.07500
C878        C  0.80489877  0.32369743  0.68547481    -0.02600
Br879      Br  0.85328094  0.28520507  0.69568483    -0.01200
Br880      Br  0.87157260  0.38847176  0.66226844    -0.01200
Br881      Br  0.67019776  0.32977794  0.71244382    -0.01200
Br882      Br  0.68406217  0.39907374  0.63090873    -0.01200
C883        C  0.62693708  0.15016619  0.18812138    -0.02300
C884        C  0.63387307  0.19198005  0.20864811     0.07400
C885        C  0.61642450  0.23024724  0.18934711    -0.02400
C886        C  0.59043695  0.22621994  0.15243982    -0.02400
C887        C  0.58970696  0.18609290  0.12832876     0.07500
C888        C  0.60710710  0.14760186  0.14697702    -0.02600
Br889      Br  0.60748487  0.09202271  0.11529758    -0.01200
Br890      Br  0.64544214  0.09603922  0.21492288    -0.01200
Br891      Br  0.55834167  0.27745443  0.13342858    -0.01200
Br892      Br  0.63512335  0.28952710  0.20577533    -0.01200
C893        C  0.76678739  0.10872490  0.29208487    -0.02300
C894        C  0.76743820  0.15497850  0.28577281     0.07400
C895        C  0.80689770  0.17650608  0.27461674    -0.02400
C896        C  0.84523884  0.15175746  0.26875376    -0.02400
C897        C  0.84394500  0.10511850  0.27227694     0.07500
C898        C  0.80478005  0.08368012  0.28464261    -0.02600
Br899      Br  0.80235128  0.01982587  0.28852256    -0.01200
Br900      Br  0.71382178  0.07974687  0.31121859    -0.01200
Br901      Br  0.89962485  0.18196884  0.25568594    -0.01200
Br902      Br  0.80792039  0.23947804  0.26393815    -0.01200
C903        C  0.64361313  0.31175734  0.32405804    -0.02300
C904        C  0.67718447  0.28198795  0.33500984     0.07400
C905        C  0.70970687  0.29756368  0.36399768    -0.02400
C906        C  0.71324927  0.34338524  0.37405167    -0.02400
C907        C  0.68512617  0.37428619  0.35426345     0.07500
C908        C  0.64982775  0.35770742  0.32949614    -0.02600
Br909      Br  0.61153852  0.39709078  0.29901742    -0.01200
Br910      Br  0.58591581  0.29037288  0.30890592    -0.01200
Br911      Br  0.75576679  0.36278984  0.41641516    -0.01200
Br912      Br  0.74600897  0.25637073  0.39461387    -0.01200
C913        C  0.36417762  0.28324277  0.20183204    -0.02300
C914        C  0.31837631  0.28204358  0.20325900     0.07400
C915        C  0.29406816  0.27934776  0.16484112    -0.02400
C916        C  0.31582570  0.27669625  0.12479892    -0.02400
C917        C  0.36186833  0.27491305  0.12341701     0.07500
C918        C  0.38596432  0.27835750  0.16200968    -0.02600
Br919      Br  0.44836675  0.27256291  0.16113206    -0.01200
Br920      Br  0.39684346  0.29244354  0.25441393    -0.01200
Br921      Br  0.28240192  0.27506230  0.07193749    -0.01200
Br922      Br  0.23101498  0.27698941  0.16720458    -0.01200
C923        C  0.30619788  0.17263624  0.33372622    -0.02300
C924        C  0.26913432  0.20010644  0.33016128     0.07400
C925        C  0.22881830  0.18563862  0.34791578    -0.02400
C926        C  0.22687579  0.14699289  0.37264917    -0.02400
C927        C  0.26245583  0.11758301  0.37234750     0.07500
C928        C  0.30197661  0.13024695  0.35182250    -0.02600
Br929      Br  0.34965556  0.08891379  0.34502609    -0.01200
Br930      Br  0.36342019  0.19231037  0.31489490    -0.01200
Br931      Br  0.17592985  0.13607356  0.40855269    -0.01200
Br932      Br  0.17435728  0.21339676  0.33310849    -0.01200
C933        C  0.13741049  0.35809135  0.32717955    -0.02300
C934        C  0.12788444  0.38288078  0.28990065     0.07400
C935        C  0.16245923  0.39829419  0.26364193    -0.02400
C936        C  0.20487593  0.38217290  0.26965669    -0.02400
C937        C  0.21235379  0.34943222  0.30137385     0.07500
C938        C  0.18021214  0.34322838  0.33392778    -0.02600
Br939      Br  0.19495763  0.31763595  0.38900415    -0.01200
Br940      Br  0.09189994  0.34140223  0.36762848    -0.01200
Br941      Br  0.25204892  0.40720916  0.23547092    -0.01200
Br942      Br  0.15162429  0.44165171  0.21944130    -0.01200
C943        C  0.68586774  0.62310176  0.21210488    -0.02300
C944        C  0.68921938  0.65781022  0.18154472     0.07400
C945        C  0.69152196  0.64730556  0.13685179    -0.02400
C946        C  0.69416174  0.60291607  0.12314792    -0.02400
C947        C  0.69205954  0.56863829  0.15365860     0.07500
C948        C  0.68697822  0.57860816  0.19790541    -0.02600
Br949      Br  0.68424132  0.53088674  0.23904940    -0.01200
Br950      Br  0.68310417  0.63499237  0.27372624    -0.01200
Br951      Br  0.70301160  0.58908292  0.06254698    -0.01200
Br952      Br  0.69006488  0.69336675  0.09376109    -0.01200
C953        C  0.81919003  0.77163073  0.17396824    -0.02300
C954        C  0.77818800  0.79286810  0.17580179     0.07400
C955        C  0.77562814  0.83884801  0.16864407    -0.02400
C956        C  0.81395605  0.86460749  0.16698323    -0.02400
C957        C  0.85471174  0.84396813  0.17087878     0.07500
C958        C  0.85744940  0.79740203  0.17130040    -0.02600
Br959      Br  0.91398472  0.76935606  0.17156472    -0.01200
Br960      Br  0.82431098  0.70808409  0.17962216    -0.01200
Br961      Br  0.81045427  0.92834051  0.16391169    -0.01200
Br962      Br  0.71949444  0.86653805  0.16212701    -0.01200
C963        C  0.59810990  0.78854274  0.32999990    -0.02300
C964        C  0.62364019  0.79365554  0.36740612     0.07400
C965        C  0.66957460  0.79377181  0.36413972    -0.02400
C966        C  0.68997382  0.78704274  0.32367515    -0.02400
C967        C  0.66425574  0.77840745  0.28663600     0.07500
C968        C  0.61832171  0.78002917  0.28979775    -0.02600
Br969      Br  0.58278307  0.76794073  0.23959427    -0.01200
Br970      Br  0.53521918  0.78827065  0.33486908    -0.01200
Br971      Br  0.75299520  0.78431213  0.32064211    -0.01200
Br972      Br  0.70430302  0.79800000  0.41607917    -0.01200
C973        C  0.24319608  0.80170370  0.13568611    -0.02300
C974        C  0.28037364  0.78608000  0.15798296     0.07400
C975        C  0.31762810  0.81438215  0.16025799    -0.02400
C976        C  0.31404934  0.85956278  0.15049704    -0.02400
C977        C  0.27758242  0.87477402  0.12729768     0.07500
C978        C  0.24420852  0.84389607  0.11650623    -0.02600
Br979      Br  0.20147969  0.85700490  0.07263313    -0.01200
Br980      Br  0.18884961  0.76891412  0.13262152    -0.01200
Br981      Br  0.35788507  0.90003743  0.17310296    -0.01200
Br982      Br  0.37532074  0.79186723  0.17229604    -0.01200
C983        C  0.18652320  0.63681148  0.16169959    -0.02300
C984        C  0.20985297  0.64253273  0.20098056     0.07400
C985        C  0.19574846  0.61750906  0.23758415    -0.02400
C986        C  0.15860808  0.58994357  0.23470347    -0.02400
C987        C  0.13070914  0.59263836  0.19879947     0.07500
C988        C  0.14545305  0.61521357  0.16161247    -0.02600
Br989      Br  0.10852484  0.62020698  0.11152908    -0.01200
Br990      Br  0.21134619  0.65494887  0.10692225    -0.01200
Br991      Br  0.14516881  0.54868752  0.28075746    -0.01200
Br992      Br  0.22226611  0.62236289  0.29422541    -0.01200
C993        C  0.34479188  0.66291556  0.30196656    -0.02300
C994        C  0.33469543  0.70401152  0.28283377     0.07400
C995        C  0.34954997  0.74369768  0.30339787    -0.02400
C996        C  0.37362580  0.74158775  0.34182581    -0.02400
C997        C  0.37582673  0.70140798  0.36487329     0.07500
C998        C  0.36157520  0.66173948  0.34426856    -0.02600
Br999      Br  0.36091238  0.60570107  0.37402907    -0.01200
Br1000     Br  0.33844313  0.60770289  0.26993085    -0.01200
Br1001     Br  0.40515408  0.79405581  0.36144260    -0.01200
Br1002     Br  0.33430470  0.80222519  0.28353982    -0.01200
C1003       C  0.75924930  0.79513759  0.58881225    -0.02300
C1004       C  0.80368550  0.79682938  0.57699738     0.07400
C1005       C  0.83574635  0.79223498  0.60921958    -0.02400
C1006       C  0.82342610  0.78345412  0.65241650    -0.02400
C1007       C  0.77901981  0.77715462  0.66353853     0.07500
C1008       C  0.74674429  0.78523467  0.63176495    -0.02600
Br1009     Br  0.68513868  0.77968846  0.64497186    -0.01200
Br1010     Br  0.71565815  0.80344582  0.54481086    -0.01200
Br1011     Br  0.86759287  0.78129748  0.69656149    -0.01200
Br1012     Br  0.89686937  0.79348297  0.59342164    -0.01200
C1013       C  0.79168512  0.62672226  0.75795187    -0.02300
C1014       C  0.79029886  0.66670178  0.78239607     0.07400
C1015       C  0.80001659  0.66538774  0.82711953    -0.02400
C1016       C  0.80559042  0.62440816  0.84806673    -0.02400
C1017       C  0.80239707  0.58423770  0.82435325     0.07500
C1018       C  0.79781185  0.58583593  0.77893434    -0.02600
Br1019     Br  0.79660175  0.53102451  0.74604108    -0.01200
Br1020     Br  0.78068938  0.62655670  0.69648523    -0.01200
Br1021     Br  0.81301908  0.62329880  0.91005411    -0.01200
Br1022     Br  0.80456712  0.71994585  0.86021222    -0.01200
C1023       C  0.67157996  0.82458155  0.79708013    -0.02300
C1024       C  0.67588779  0.77982353  0.78433028     0.07400
C1025       C  0.63824965  0.75318576  0.77879731    -0.02400
C1026       C  0.59663405  0.77239284  0.78162522    -0.02400
C1027       C  0.59244038  0.81837757  0.78926054     0.07500
C1028       C  0.62991817  0.84405021  0.79925091    -0.02600
Br1029     Br  0.62504296  0.90690107  0.81062585    -0.01200
Br1030     Br  0.72319233  0.85962590  0.80890026    -0.01200
Br1031     Br  0.54531664  0.73639433  0.77112905    -0.01200
Br1032     Br  0.64350221  0.69165233  0.76149348    -0.01200
loop_ 
_geom_bond_atom_site_label_1 
_geom_bond_atom_site_label_2 
_geom_bond_distance 
_geom_bond_site_symmetry_2 
_ccdc_geom_bond_type 
C1            N2   1.361       .  A
C1            N6   1.367       .  A
C1         C1014   1.498       .  S
N2            C3   1.357       .  A
C3            N4   1.355       .  A
C3         C1024   1.475       .  S
N4            C5   1.355       .  A
C5            N6   1.369       .  A
C5         C1007   1.496       .  S
C7            N8   1.355       .  A
C7           N12   1.363       .  A
C7          C974   1.502       .  S
N8            C9   1.350       .  A
C9           N10   1.354       .  A
C9          C994   1.493       .  S
N10          C11   1.355       .  A
C11          N12   1.365       .  A
C11         C984   1.505       .  S
C13          N14   1.356       .  A
C13          N18   1.355       .  A
C13         C944   1.479       .  S
N14          C15   1.357       .  A
C15          N16   1.355       .  A
C15         C967   1.474       .  S
N16          C17   1.357       .  A
C17          N18   1.352       .  A
C17         C954   1.472       .  S
C19          N20   1.354       .  A
C19          N24   1.360       .  A
C19         C924   1.483       .  S
N20          C21   1.351       .  A
C21          N22   1.349       .  A
C21         C914   1.457       .  S
N22          C23   1.353       .  A
C23          N24   1.361       .  A
C23         C937   1.496       .  S
C25          N26   1.363       .  A
C25          N30   1.359       .  A
C25         C904   1.509       .  S
N26          C27   1.362       .  A
C27          N28   1.356       .  A
C27         C894   1.476       .  S
N28          C29   1.354       .  A
C29          N30   1.357       .  A
C29         C884   1.492       .  S
C31          N32   1.356       .  A
C31          N36   1.358       .  A
C31         C854   1.508       .  S
N32          C33   1.363       .  A
C33          N34   1.364       .  A
C33         C877   1.489       .  S
N34          C35   1.365       .  A
C35          N36   1.357       .  A
C35         C864   1.492       .  S
C37          N38   1.361       .  A
C37          N42   1.364       .  A
C37         C844   1.495       .  S
N38          C39   1.357       .  A
C39          N40   1.356       .  A
C39         C824   1.483       .  S
N40          C41   1.356       .  A
C41          N42   1.365       .  A
C41         C834   1.495       .  S
Zr43         O44   2.438   1_554  S
Zr43         O45   2.502   1_554  S
Zr43         O46   2.450       .  S
Zr43         O49   2.499   1_554  S
Zr43         O51   2.390   1_545  S
Zr43         O52   2.388   1_554  S
Zr43         O53   2.433       .  S
Zr43         O54   2.391       .  S
O44         H100   0.990       .  S
O44         H108   0.990   1_556  S
O45          C65   1.297   1_545  A
O46          C67   1.286       .  A
O47         Zr57   2.415       .  S
O47          C66   1.280       .  A
O48         Zr56   2.451       .  S
O48          C67   1.289   1_565  A
O49          C66   1.296       .  A
O50         Zr58   2.404       .  S
O50          C65   1.278       .  A
O51         Zr56   2.392       .  S
O51         Zr58   2.385   1_554  S
O52         Zr57   2.395       .  S
O52         Zr58   2.392   1_545  S
O52          H87   0.967       .  S
O53         Zr56   2.404   1_545  S
O53         Zr73   2.411       .  S
O53          H90   0.965       .  S
O54         Zr57   2.371   1_554  S
O54         Zr73   2.382       .  S
Zr55         O80   2.438   1_545  S
Zr55         O74   2.452       .  S
Zr55         O82   2.504       .  S
Zr55         O70   2.440   1_545  S
Zr55         O61   2.404   1_554  S
Zr55         O62   2.428   1_645  S
Zr55         O63   2.383   1_655  S
Zr55         O64   2.382       .  S
Zr56         O75   2.440       .  S
Zr56         O68   2.435       .  S
Zr56         O69   2.447       .  S
Zr56         O62   2.412       .  S
Zr56         O63   2.371   1_565  S
Zr57         O59   2.438   1_455  S
Zr57         O81   2.442       .  S
Zr57         O83   2.404   1_455  S
Zr57         O61   2.382   1_455  S
Zr57         O64   2.403   1_456  S
Zr58         O84   2.437   1_565  S
Zr58         O85   2.434   1_455  S
Zr58         O60   2.438       .  S
Zr58         O61   2.400   1_465  S
Zr58         O62   2.396   1_556  S
O59          H96   0.990   1_655  S
O60          H91   0.990       .  S
O60         H105   0.990       .  S
O62          H88   0.965       .  S
O63         Zr73   2.339       .  S
O64         Zr73   2.390   1_655  S
O64          H89   0.962       .  S
C65         C596   1.506       .  S
C66         C113   1.478       .  S
C67         C129   1.497   1_545  S
O68         H104   0.990       .  S
O69          C71   1.289   1_455  A
O70          C71   1.289       .  A
C71         C315   1.481       .  S
O72         Zr73   2.436       .  S
O72         H101   0.989       .  S
Zr73         O76   2.437       .  S
Zr73         O77   2.443       .  S
Zr73         O78   2.436       .  S
O74          C79   1.288       .  A
O75          H92   0.990       .  S
O75         H107   0.990       .  S
O76          H93   0.990       .  S
O77          H97   0.990       .  S
O77         H106   0.990   1_455  S
O78          C79   1.284   1_455  A
C79         C122   1.476       .  S
O80          H99   0.990   1_565  S
O80         H103   0.990       .  S
O81          H95   0.991   1_455  S
O81         H102   0.990       .  S
O82          C86   1.298       .  A
O83          C86   1.277   1_556  A
O84          H94   0.990       .  S
O85          H98   0.990       .  S
C86         C501   1.492   1_554  S
C109        C814   1.478       .  S
C109        C110   1.409       .  A
C109        C114   1.400       .  A
C110        C111   1.409   1_556  A
C110        H115   1.084       .  S
C111        C458   1.485       .  S
C111        C112   1.412       .  A
C112        C113   1.415   1_554  A
C112        H116   1.084       .  S
C113        C114   1.392       .  A
C114        H117   1.085       .  S
C118        C897   1.480       .  S
C118        C119   1.403       .  A
C118        C123   1.403       .  A
C119        C120   1.403       .  A
C119        H124   1.084       .  S
C120        C253   1.481       .  S
C120        C121   1.409       .  A
C121        C122   1.410       .  A
C121        H125   1.084       .  S
C122        C123   1.398       .  A
C123        H126   1.084       .  S
C127        C977   1.497       .  S
C127        C128   1.409       .  A
C127        C132   1.401       .  A
C128        C129   1.409       .  A
C128        H133   1.083       .  S
C129        C130   1.413   1_565  A
C130        C131   1.408   1_545  A
C130        H134   1.083       .  S
C131        C551   1.472       .  S
C131        C132   1.399       .  A
C132        H135   1.084       .  S
Zr136       O137   2.443       .  S
Zr136       O138   2.495       .  S
Zr136       O139   2.441       .  S
Zr136       O142   2.487       .  S
Zr136       O144   2.389       .  S
Zr136       O145   2.382       .  S
Zr136       O146   2.428       .  S
Zr136       O147   2.300       .  S
O137        H193   0.990       .  S
O137        H201   0.990       .  S
O138        C158   1.297       .  A
O139        C160   1.286       .  A
O140       Zr150   2.411       .  S
O140        C159   1.280       .  A
O141       Zr149   2.434       .  S
O141        C160   1.285       .  A
O142        C159   1.293       .  A
O143       Zr151   2.406       .  S
O143        C158   1.276       .  A
O144       Zr149   2.397       .  S
O144       Zr151   2.385       .  S
O145       Zr150   2.390       .  S
O145       Zr151   2.400       .  S
O145        H180   0.964       .  S
O146       Zr149   2.414       .  S
O146       Zr166   2.402       .  S
O146        H183   0.964       .  S
O147       Zr150   2.285       .  S
O147       Zr166   2.314       .  S
Zr148       O173   2.441       .  S
Zr148       O167   2.445       .  S
Zr148       O175   2.474       .  S
Zr148       O163   2.423       .  S
Zr148       O154   2.401   1_455  S
Zr148       O155   2.419   1_455  S
Zr148       O156   2.379   1_455  S
Zr148       O157   2.383   1_455  S
Zr149       O168   2.439       .  S
Zr149       O161   2.435       .  S
Zr149       O162   2.450       .  S
Zr149       O155   2.406       .  S
Zr149       O156   2.372       .  S
Zr150       O152   2.442       .  S
Zr150       O174   2.444       .  S
Zr150       O176   2.409   1_655  S
Zr150       O154   2.380       .  S
Zr150       O157   2.399       .  S
Zr151       O177   2.435       .  S
Zr151       O178   2.435       .  S
Zr151       O153   2.439       .  S
Zr151       O154   2.404       .  S
Zr151       O155   2.392       .  S
O152        H189   0.990       .  S
O153        H184   0.990       .  S
O153        H198   0.990       .  S
O155        H181   0.966       .  S
O156       Zr166   2.347       .  S
O157       Zr166   2.391       .  S
O157        H182   0.964       .  S
C158        C689   1.497       .  S
C159        C222   1.482       .  S
C160        C206   1.486       .  S
O161        H197   0.990       .  S
O162        C164   1.288       .  A
O163        C164   1.286   1_455  A
C164        C494   1.481   1_655  S
O165       Zr166   2.442       .  S
O165        H194   0.990       .  S
Zr166       O169   2.443       .  S
Zr166       O170   2.447       .  S
Zr166       O171   2.445       .  S
O167        C172   1.287   1_455  A
O168        H185   0.990       .  S
O168        H200   0.991       .  S
O169        H186   0.991       .  S
O170        H190   0.991       .  S
O170        H199   0.990       .  S
O171        C172   1.283       .  A
C172        C215   1.477   1_655  S
O173        H192   0.990       .  S
O173        H196   0.990       .  S
O174        H188   0.990       .  S
O174        H195   0.990       .  S
O175        C179   1.291       .  A
O176        C179   1.278       .  A
O177        H187   0.990       .  S
O178        H191   0.990   1_655  S
C179        C299   1.482       .  S
C202        C907   1.501       .  S
C202        C203   1.405       .  A
C202        C207   1.406       .  A
C203        C204   1.406       .  A
C203        H208   1.084       .  S
C204        C644   1.473       .  S
C204        C205   1.400       .  A
C205        C206   1.410       .  A
C205        H209   1.084       .  S
C206        C207   1.410       .  A
C207        H210   1.083       .  S
C211        C987   1.491       .  S
C211        C212   1.408       .  A
C211        C216   1.403       .  A
C212        C213   1.413       .  A
C212        H217   1.083       .  S
C213        C443   1.492   1_455  S
C213        C214   1.413   1_455  A
C214        C215   1.409   1_655  A
C214        H218   1.084       .  S
C215        C216   1.393       .  A
C216        H219   1.085       .  S
C220       C1004   1.487       .  S
C220        C221   1.403       .  A
C220        C225   1.414       .  A
C221        C222   1.394       .  A
C221        H226   1.085       .  S
C222        C223   1.412       .  A
C223        C224   1.411       .  A
C223        H227   1.084       .  S
C224        C252   1.488       .  S
C224        C225   1.415       .  A
C225        H228   1.084       .  S
Zr229       O230   2.438       .  S
Zr229       O231   2.465       .  S
Zr229       O232   2.440       .  S
Zr229       O235   2.510       .  S
Zr229       O237   2.378   1_655  S
Zr229       O238   2.376       .  S
Zr229       O239   2.428       .  S
Zr229       O240   2.400       .  S
O230        H286   0.991       .  S
O230        H294   0.990       .  S
O231        C251   1.291       .  A
O232        C253   1.287   1_565  A
O233       Zr243   2.394   1_655  S
O233        C252   1.276       .  A
O234       Zr242   2.446   1_545  S
O234        C253   1.287   1_455  A
O235        C252   1.299       .  A
O236       Zr244   2.419       .  S
O236        C251   1.280   1_455  A
O237       Zr242   2.367       .  S
O237       Zr244   2.348       .  S
O238       Zr243   2.399   1_655  S
O238       Zr244   2.392   1_655  S
O238        H273   0.965       .  S
O239       Zr242   2.414   1_655  S
O239       Zr259   2.409   1_655  S
O239        H276   0.965   1_565  S
O240       Zr243   2.380   1_655  S
O240       Zr259   2.396   1_655  S
Zr241       O266   2.442       .  S
Zr241       O260   2.461       .  S
Zr241       O268   2.491       .  S
Zr241       O256   2.415       .  S
Zr241       O247   2.377       .  S
Zr241       O248   2.426       .  S
Zr241       O249   2.381       .  S
Zr241       O250   2.384       .  S
Zr242       O261   2.436   1_565  S
Zr242       O254   2.436       .  S
Zr242       O255   2.445   1_565  S
Zr242       O248   2.404       .  S
Zr242       O249   2.384       .  S
Zr243       O245   2.435       .  S
Zr243       O267   2.438   1_455  S
Zr243       O269   2.391       .  S
Zr243       O247   2.371       .  S
Zr243       O250   2.396       .  S
Zr244       O270   2.440       .  S
Zr244       O271   2.436       .  S
Zr244       O246   2.437       .  S
Zr244       O247   2.375       .  S
Zr244       O248   2.406       .  S
O245        H282   0.990   1_455  S
O246        H277   0.991       .  S
O246        H291   0.989       .  S
O248        H274   0.966       .  S
O249       Zr259   2.369       .  S
O250       Zr259   2.396       .  S
O250        H275   0.965       .  S
C251        C317   1.475       .  S
O254        H290   0.990       .  S
O255        C257   1.288   1_545  A
O256        C257   1.281       .  A
C257        C306   1.481   1_565  S
O258       Zr259   2.439   1_655  S
O258        H287   0.990   1_565  S
Zr259       O262   2.437   1_565  S
Zr259       O263   2.440       .  S
Zr259       O264   2.436       .  S
O260        C265   1.290       .  A
O261        H278   0.990       .  S
O261        H293   0.990       .  S
O262        H279   0.990       .  S
O263        H283   0.990       .  S
O263        H292   0.990   1_455  S
O264        C265   1.284       .  A
C265        C773   1.503   1_565  S
O266        H285   0.991       .  S
O266        H289   0.990       .  S
O267        H281   0.988       .  S
O267        H288   0.990   1_655  S
O268        C272   1.292       .  A
O269        C272   1.277       .  A
O270        H280   0.990   1_455  S
O271        H284   0.990       .  S
C272        C297   1.470       .  S
C295        C827   1.481       .  S
C295        C296   1.403       .  A
C295        C300   1.413       .  A
C296        C297   1.391       .  A
C296        H301   1.085       .  S
C297        C298   1.408       .  A
C298        C299   1.406       .  A
C298        H302   1.085       .  S
C299        C300   1.410       .  A
C300        H303   1.084       .  S
C304        C927   1.483       .  S
C304        C305   1.407       .  A
C304        C309   1.404       .  A
C305        C306   1.400       .  A
C305        H310   1.083       .  S
C306        C307   1.404   1_545  A
C307        C308   1.403   1_565  A
C307        H311   1.083       .  S
C308        C718   1.473   1_545  S
C308        C309   1.399       .  A
C309        H312   1.084       .  S
C313        C957   1.469       .  S
C313        C314   1.400       .  A
C313        C318   1.401       .  A
C314        C315   1.403       .  A
C314        H319   1.084       .  S
C315        C316   1.411       .  A
C316        C317   1.411       .  A
C316        H320   1.084   1_655  S
C317        C318   1.393       .  A
C318        H321   1.085       .  S
Zr322       O323   2.420       .  S
Zr322       O324   2.428       .  S
Zr322       O325   2.436       .  S
Zr322       O328   2.497       .  S
Zr322       O330   2.388       .  S
Zr322       O331   2.379       .  S
Zr322       O332   2.407       .  S
Zr322       O333   2.361       .  S
O323        H379   0.989       .  S
O323        H387   0.990       .  S
O324        C344   1.285       .  A
O325        C346   1.285       .  A
O326       Zr336   2.369       .  S
O326        C345   1.273       .  A
O327       Zr335   2.420       .  S
O327        C346   1.282       .  A
O328        C345   1.296       .  A
O329       Zr337   2.444       .  S
O329        C344   1.284       .  A
O330       Zr335   2.386       .  S
O330       Zr337   2.370       .  S
O331       Zr336   2.378       .  S
O331       Zr337   2.381       .  S
O331        H366   0.965       .  S
O332       Zr335   2.409       .  S
O332       Zr352   2.389       .  S
O332        H369   0.964       .  S
O333       Zr336   2.379       .  S
O333       Zr352   2.368       .  S
Zr334       O359   2.440       .  S
Zr334       O353   2.451       .  S
Zr334       O361   2.475       .  S
Zr334       O349   2.429       .  S
Zr334       O340   2.409       .  S
Zr334       O341   2.428   1_554  S
Zr334       O342   2.372   1_554  S
Zr334       O343   2.388   1_554  S
Zr335       O354   2.438       .  S
Zr335       O347   2.434       .  S
Zr335       O348   2.437       .  S
Zr335       O341   2.398       .  S
Zr335       O342   2.364       .  S
Zr336       O338   2.434   1_556  S
Zr336       O360   2.437       .  S
Zr336       O362   2.395   1_556  S
Zr336       O340   2.372   1_556  S
Zr336       O343   2.400       .  S
Zr337       O363   2.437       .  S
Zr337       O364   2.435   1_556  S
Zr337       O339   2.437       .  S
Zr337       O340   2.403   1_556  S
Zr337       O341   2.409       .  S
O338        H375   0.989       .  S
O339        H370   0.990       .  S
O339        H384   0.989       .  S
O341        H367   0.965       .  S
O342       Zr352   2.360       .  S
O343       Zr352   2.389       .  S
O343        H368   0.967   1_556  S
C344        C680   1.492       .  S
C345        C410   1.464       .  S
C346        C390   1.480       .  S
O347        H383   0.990       .  S
O348        C350   1.287   1_556  A
O349        C350   1.286       .  A
C350        C585   1.474       .  S
O351       Zr352   2.436       .  S
O351        H380   0.990       .  S
Zr352       O355   2.436       .  S
Zr352       O356   2.438       .  S
Zr352       O357   2.407       .  S
O353        C358   1.290       .  A
O354        H371   0.990       .  S
O354        H386   0.990       .  S
O355        H372   0.990       .  S
O356        H376   0.990       .  S
O356        H385   0.990       .  S
O357        C358   1.277   1_556  A
C358        C399   1.460       .  S
O359        H378   0.990       .  S
O359        H382   0.990       .  S
O360        H374   0.990   1_556  S
O360        H381   0.989       .  S
O361        C365   1.285       .  A
O362        C365   1.269       .  A
O363        H373   0.990       .  S
O364        H377   0.990       .  S
C365        C485   1.475       .  S
C388        C804   1.488       .  S
C388        C389   1.406       .  A
C388        C393   1.408       .  A
C389        C390   1.403       .  A
C389        H394   1.084       .  S
C390        C391   1.400       .  A
C391        C392   1.401       .  A
C391        H395   1.082       .  S
C392        C623   1.483       .  S
C392        C393   1.410       .  A
C393        H396   1.083       .  S
C397        C887   1.492       .  S
C397        C398   1.399       .  A
C397        C402   1.411       .  A
C398        C399   1.385       .  A
C398        H403   1.085       .  S
C399        C400   1.400   1_554  A
C400        C401   1.406   1_556  A
C400        H404   1.084       .  S
C401        C536   1.485   1_554  S
C401        C402   1.417       .  A
C402        H405   1.082       .  S
C406       C1017   1.495       .  S
C406        C407   1.420       .  A
C406        C411   1.402       .  A
C407        C408   1.424       .  A
C407        H412   1.083       .  S
C408        C437   1.511       .  S
C408        C409   1.406       .  A
C409        C410   1.411       .  A
C409        H413   1.084       .  S
C410        C411   1.390       .  A
C411        H414   1.085       .  S
Zr415       O416   2.443       .  S
Zr415       O417   2.499   1_554  S
Zr415       O418   2.441       .  S
Zr415       O421   2.490       .  S
Zr415       O423   2.388       .  S
Zr415       O424   2.387   1_554  S
Zr415       O425   2.436       .  S
Zr415       O426   2.299       .  S
O416        H472   0.991   1_554  S
O416        H480   0.991       .  S
O417        C437   1.297       .  A
O418        C439   1.284       .  A
O419       Zr429   2.391       .  S
O419        C438   1.277       .  A
O420       Zr428   2.457       .  S
O420        C439   1.290       .  A
O421        C438   1.294   1_554  A
O422       Zr430   2.420       .  S
O422        C437   1.280       .  A
O423       Zr428   2.396       .  S
O423       Zr430   2.385   1_554  S
O424       Zr429   2.395       .  S
O424       Zr430   2.395       .  S
O424        H459   0.965       .  S
O425       Zr428   2.413       .  S
O425       Zr445   2.398       .  S
O425        H462   0.964       .  S
O426       Zr429   2.274   1_554  S
O426       Zr445   2.304       .  S
Zr427       O452   2.441       .  S
Zr427       O446   2.455       .  S
Zr427       O454   2.499       .  S
Zr427       O442   2.436       .  S
Zr427       O433   2.405   1_455  S
Zr427       O434   2.429   1_455  S
Zr427       O435   2.385   1_455  S
Zr427       O436   2.379   1_455  S
Zr428       O447   2.438       .  S
Zr428       O440   2.436       .  S
Zr428       O441   2.462       .  S
Zr428       O434   2.408       .  S
Zr428       O435   2.376       .  S
Zr429       O431   2.431   1_556  S
Zr429       O453   2.437       .  S
Zr429       O455   2.398   1_655  S
Zr429       O433   2.379   1_556  S
Zr429       O436   2.391   1_556  S
Zr430       O456   2.436       .  S
Zr430       O457   2.437   1_655  S
Zr430       O432   2.440       .  S
Zr430       O433   2.402   1_556  S
Zr430       O434   2.402   1_556  S
O431        H468   0.990       .  S
O432        H463   0.991       .  S
O432        H477   0.990       .  S
O434        H460   0.966       .  S
O435       Zr445   2.350       .  S
O436       Zr445   2.382       .  S
O436        H461   0.963   1_655  S
C438        C503   1.481       .  S
C439        C483   1.493       .  S
O440        H476   0.990       .  S
O441        C443   1.291       .  A
O442        C443   1.287   1_455  A
O444       Zr445   2.441       .  S
O444        H473   0.990       .  S
Zr445       O448   2.441       .  S
Zr445       O449   2.445       .  S
Zr445       O450   2.444       .  S
O446        C451   1.289       .  A
O447        H464   0.990       .  S
O447        H479   0.991       .  S
O448        H465   0.991       .  S
O449        H469   0.990       .  S
O449        H478   0.990       .  S
O450        C451   1.285   1_655  A
C451        C492   1.483       .  S
O452        H471   0.990       .  S
O452        H475   0.990       .  S
O453        H467   0.990       .  S
O453        H474   0.990       .  S
O454        C458   1.296       .  A
O455        C458   1.276   1_556  A
O456        H466   0.990       .  S
O457        H470   0.990       .  S
C481        C947   1.472       .  S
C481        C482   1.398       .  A
C481        C486   1.397       .  A
C482        C483   1.404       .  A
C482        H487   1.084       .  S
C483        C484   1.418       .  A
C484        C485   1.412       .  A
C484        H488   1.084       .  S
C485        C486   1.402       .  A
C486        H489   1.085       .  S
C490        C934   1.482       .  S
C490        C491   1.407       .  A
C490        C495   1.396       .  A
C491        C492   1.404       .  A
C491        H496   1.084       .  S
C492        C493   1.412   1_455  A
C493        C494   1.408   1_655  A
C493        H497   1.084       .  S
C494        C495   1.402       .  A
C495        H498   1.084       .  S
C499        C867   1.487       .  S
C499        C500   1.419       .  A
C499        C504   1.403       .  A
C500        C501   1.416       .  A
C500        H505   1.083       .  S
C501        C502   1.410   1_556  A
C502        C503   1.410   1_554  A
C502        H506   1.085       .  S
C503        C504   1.391       .  A
C504        H507   1.085       .  S
Zr508       O509   2.440   1_545  S
Zr508       O510   2.481   1_545  S
Zr508       O511   2.436       .  S
Zr508       O514   2.465       .  S
Zr508       O516   2.391       .  S
Zr508       O517   2.394   1_545  S
Zr508       O518   2.430       .  S
Zr508       O519   2.392       .  S
O509        H565   0.989       .  S
O509        H573   0.990   1_565  S
O510        C530   1.293       .  A
O511        C532   1.284       .  A
O512       Zr522   2.388       .  S
O512        C531   1.270       .  A
O513       Zr521   2.466       .  S
O513        C532   1.292       .  A
O514        C531   1.284   1_545  A
O515       Zr523   2.402       .  S
O515        C530   1.278       .  A
O516       Zr521   2.390       .  S
O516       Zr523   2.385   1_545  S
O517       Zr522   2.393       .  S
O517       Zr523   2.385       .  S
O517        H552   0.967       .  S
O518       Zr521   2.406       .  S
O518       Zr538   2.393       .  S
O518        H555   0.962       .  S
O519       Zr522   2.379   1_545  S
O519       Zr538   2.379       .  S
Zr520       O545   2.440       .  S
Zr520       O539   2.423       .  S
Zr520       O547   2.459       .  S
Zr520       O535   2.415       .  S
Zr520       O526   2.404   1_544  S
Zr520       O527   2.421   1_554  S
Zr520       O528   2.384   1_554  S
Zr520       O529   2.394   1_554  S
Zr521       O540   2.439       .  S
Zr521       O533   2.434       .  S
Zr521       O534   2.463       .  S
Zr521       O527   2.407       .  S
Zr521       O528   2.373       .  S
Zr522       O524   2.436   1_565  S
Zr522       O546   2.438       .  S
Zr522       O548   2.390   1_556  S
Zr522       O526   2.381       .  S
Zr522       O529   2.398   1_565  S
Zr523       O549   2.435       .  S
Zr523       O550   2.436       .  S
Zr523       O525   2.437       .  S
Zr523       O526   2.387       .  S
Zr523       O527   2.393   1_565  S
O524        H561   0.990   1_545  S
O525        H556   0.990       .  S
O525        H570   0.990       .  S
O527        H553   0.965       .  S
O528       Zr538   2.353       .  S
O529       Zr538   2.377       .  S
O529        H554   0.967       .  S
C530        C780   1.496       .  S
C531        C594   1.458       .  S
C532        C576   1.492       .  S
O533        H569   0.990       .  S
O534        C536   1.293       .  A
O535        C536   1.283   1_554  A
O537       Zr538   2.436       .  S
O537        H566   0.990       .  S
Zr538       O541   2.437       .  S
Zr538       O542   2.439       .  S
Zr538       O543   2.429       .  S
O539        C544   1.282   1_554  A
O540        H557   0.990       .  S
O540        H572   0.990       .  S
O541        H558   0.990       .  S
O542        H562   0.990       .  S
O542        H571   0.990       .  S
O543        C544   1.282       .  A
C544        C587   1.461   1_556  S
O545        H564   0.990       .  S
O545        H568   0.990       .  S
O546        H560   0.990       .  S
O546        H567   0.990       .  S
O547        C551   1.281   1_545  A
O548        C551   1.268       .  A
O549        H559   0.990       .  S
O550        H563   0.990   1_556  S
C574        C857   1.487       .  S
C574        C575   1.401       .  A
C574        C579   1.406       .  A
C575        C576   1.401       .  A
C575        H580   1.084       .  S
C576        C577   1.413       .  A
C577        C578   1.408       .  A
C577        H581   1.082       .  S
C578        C717   1.483       .  S
C578        C579   1.410       .  A
C579        H582   1.084       .  S
C583        C917   1.472       .  S
C583        C584   1.404       .  A
C583        C588   1.397       .  A
C584        C585   1.405       .  A
C584        H589   1.084       .  S
C585        C586   1.405       .  A
C586        C587   1.403       .  A
C586        H590   1.084   1_554  S
C587        C588   1.392       .  A
C588        H591   1.085       .  S
C592        C837   1.484       .  S
C592        C593   1.392       .  A
C592        C597   1.409       .  A
C593        C594   1.386       .  A
C593        H598   1.086       .  S
C594        C595   1.413       .  A
C595        C596   1.411       .  A
C595        H599   1.083   1_565  S
C596        C597   1.423       .  A
C597        H600   1.083       .  S
Zr601       O602   2.427       .  S
Zr601       O603   2.434       .  S
Zr601       O604   2.430       .  S
Zr601       O607   2.479       .  S
Zr601       O609   2.383       .  S
Zr601       O610   2.389       .  S
Zr601       O611   2.410       .  S
Zr601       O612   2.346       .  S
O602        H658   0.989       .  S
O602        H666   0.989       .  S
O603        C623   1.287       .  A
O604        C625   1.284       .  A
O605       Zr615   2.389       .  S
O605        C624   1.280       .  A
O606       Zr614   2.428       .  S
O606        C625   1.283       .  A
O607        C624   1.291       .  A
O608       Zr616   2.414       .  S
O608        C623   1.280       .  A
O609       Zr614   2.382       .  S
O609       Zr616   2.376       .  S
O610       Zr615   2.381       .  S
O610       Zr616   2.394       .  S
O610        H645   0.968       .  S
O611       Zr614   2.401       .  S
O611       Zr631   2.401       .  S
O611        H648   0.966       .  S
O612       Zr615   2.350       .  S
O612       Zr631   2.346       .  S
Zr613       O638   2.442       .  S
Zr613       O632   2.448       .  S
Zr613       O640   2.472       .  S
Zr613       O628   2.424       .  S
Zr613       O619   2.401       .  S
Zr613       O620   2.427       .  S
Zr613       O621   2.381       .  S
Zr613       O622   2.393       .  S
Zr614       O633   2.439       .  S
Zr614       O626   2.436       .  S
Zr614       O627   2.424       .  S
Zr614       O620   2.402       .  S
Zr614       O621   2.371       .  S
Zr615       O617   2.435       .  S
Zr615       O639   2.438       .  S
Zr615       O641   2.393       .  S
Zr615       O619   2.372       .  S
Zr615       O622   2.409       .  S
Zr616       O642   2.436       .  S
Zr616       O643   2.435       .  S
Zr616       O618   2.437       .  S
Zr616       O619   2.380       .  S
Zr616       O620   2.404       .  S
O617        H654   0.990       .  S
O618        H649   0.990       .  S
O618        H663   0.990       .  S
O620        H646   0.965       .  S
O621       Zr631   2.354       .  S
O622       Zr631   2.401       .  S
O622        H647   0.967       .  S
C624        C687   1.465       .  S
C625        C678   1.484       .  S
O626        H662   0.990       .  S
O627        C629   1.286       .  A
O628        C629   1.284       .  A
C629        C762   1.474       .  S
O630       Zr631   2.437       .  S
O630        H659   0.990       .  S
Zr631       O634   2.436       .  S
Zr631       O635   2.440       .  S
Zr631       O636   2.397       .  S
O632        C637   1.288       .  A
O633        H650   0.990       .  S
O633        H665   0.990       .  S
O634        H651   0.990       .  S
O635        H655   0.990       .  S
O635        H664   0.990       .  S
O636        C637   1.277       .  A
C637        C671   1.460       .  S
O638        H657   0.990       .  S
O638        H661   0.990       .  S
O639        H653   0.990       .  S
O639        H660   0.990       .  S
O640        C644   1.284       .  A
O641        C644   1.265       .  A
O642        H652   0.990       .  S
O643        H656   0.990       .  S
C667        C964   1.471       .  S
C667        C668   1.408       .  A
C667        C672   1.395       .  A
C668        C669   1.414       .  A
C668        H673   1.083       .  S
C669        C730   1.490       .  S
C669        C670   1.408       .  A
C670        C671   1.403       .  A
C670        H674   1.084       .  S
C671        C672   1.386       .  A
C672        H675   1.085       .  S
C676        C847   1.485       .  S
C676        C677   1.403       .  A
C676        C681   1.412       .  A
C677        C678   1.400       .  A
C677        H682   1.084       .  S
C678        C679   1.400       .  A
C679        C680   1.407       .  A
C679        H683   1.082       .  S
C680        C681   1.414       .  A
C681        H684   1.083       .  S
C685        C874   1.503       .  S
C685        C686   1.405       .  A
C685        C690   1.422       .  A
C686        C687   1.387       .  A
C686        H691   1.085       .  S
C687        C688   1.404       .  A
C688        C689   1.401       .  A
C688        H692   1.084       .  S
C689        C690   1.424       .  A
C690        H693   1.082       .  S
Zr694       O695   2.438       .  S
Zr694       O696   2.456       .  S
Zr694       O697   2.429       .  S
Zr694       O700   2.479       .  S
Zr694       O702   2.374   1_545  S
Zr694       O703   2.391   1_545  S
Zr694       O704   2.429   1_545  S
Zr694       O705   2.409   1_545  S
O695        H751   0.990       .  S
O695        H759   0.990       .  S
O696        C716   1.289   1_545  A
O697        C718   1.285   1_545  A
O698       Zr708   2.404   1_545  S
O698        C717   1.269       .  A
O699       Zr707   2.425       .  S
O699        C718   1.285       .  A
O700        C717   1.286       .  A
O701       Zr709   2.424       .  S
O701        C716   1.281       .  A
O702       Zr707   2.363       .  S
O702       Zr709   2.352       .  S
O703       Zr708   2.407       .  S
O703       Zr709   2.383       .  S
O703        H738   0.965       .  S
O704       Zr707   2.410       .  S
O704       Zr724   2.402       .  S
O704        H741   0.965       .  S
O705       Zr708   2.383       .  S
O705       Zr724   2.392       .  S
Zr706       O731   2.441       .  S
Zr706       O725   2.442       .  S
Zr706       O733   2.462       .  S
Zr706       O721   2.422       .  S
Zr706       O712   2.395       .  S
Zr706       O713   2.412       .  S
Zr706       O714   2.381       .  S
Zr706       O715   2.388       .  S
Zr707       O726   2.437       .  S
Zr707       O719   2.435       .  S
Zr707       O720   2.431       .  S
Zr707       O713   2.399       .  S
Zr707       O714   2.379       .  S
Zr708       O710   2.435       .  S
Zr708       O732   2.436       .  S
Zr708       O734   2.397       .  S
Zr708       O712   2.393       .  S
Zr708       O715   2.398       .  S
Zr709       O735   2.435       .  S
Zr709       O736   2.435       .  S
Zr709       O711   2.435       .  S
Zr709       O712   2.389       .  S
Zr709       O713   2.395       .  S
O710        H747   0.990       .  S
O711        H742   0.989       .  S
O711        H756   0.990       .  S
O713        H739   0.965       .  S
O714       Zr724   2.367       .  S
O715       Zr724   2.386       .  S
O715        H740   0.961       .  S
C716        C771   1.470   1_565  S
O719        H755   0.990       .  S
O720        C722   1.285       .  A
O721        C722   1.283       .  A
C722        C764   1.480       .  S
O723       Zr724   2.438   1_545  S
O723        H752   0.990       .  S
Zr724       O727   2.437       .  S
Zr724       O728   2.441       .  S
Zr724       O729   2.428       .  S
O725        C730   1.287       .  A
O726        H743   0.990       .  S
O726        H758   0.990       .  S
O727        H744   0.990       .  S
O728        H748   0.990       .  S
O728        H757   0.990       .  S
O729        C730   1.283       .  A
O731        H750   0.990       .  S
O731        H754   0.990       .  S
O732        H746   0.990       .  S
O732        H753   0.984   1_565  S
O733        C737   1.284       .  A
O734        C737   1.271       .  A
O735        H745   0.990       .  S
O736        H749   0.990       .  S
C737        C782   1.463       .  S
C760        C997   1.495       .  S
C760        C761   1.410       .  A
C760        C765   1.410       .  A
C761        C762   1.405       .  A
C761        H766   1.082       .  S
C762        C763   1.399       .  A
C763        C764   1.398       .  A
C763        H767   1.084       .  S
C764        C765   1.399       .  A
C765        H768   1.083       .  S
C769        C797   1.485       .  S
C769        C770   1.397       .  A
C769        C774   1.415       .  A
C770        C771   1.387       .  A
C770        H775   1.085       .  S
C771        C772   1.406   1_545  A
C772        C773   1.414   1_565  A
C772        H776   1.084       .  S
C773        C774   1.422       .  A
C774        H777   1.083       .  S
C778       C1027   1.485       .  S
C778        C779   1.408       .  A
C778        C783   1.402       .  A
C779        C780   1.416       .  A
C779        H784   1.083       .  S
C780        C781   1.405       .  A
C781        C782   1.405       .  A
C781        H785   1.081       .  S
C782        C783   1.393       .  A
C783        H786   1.085       .  S
C787        N788   1.362       .  A
C787        N792   1.363       .  A
C787        C794   1.487       .  S
N788        C789   1.362       .  A
C789        N790   1.352       .  A
C789        C817   1.488       .  S
N790        C791   1.353       .  A
C791        N792   1.360       .  A
C791        C807   1.472       .  S
C793        C794   1.413       .  A
C793        C798   1.409       .  A
C793       Br800   1.934       .  S
C794        C795   1.414       .  A
C795        C796   1.412       .  A
C795       Br802   1.929       .  S
C796        C797   1.409       .  A
C796       Br801   1.929       .  S
C797        C798   1.412       .  A
C798       Br799   1.930       .  S
C803        C804   1.414       .  A
C803        C808   1.408       .  A
C803       Br810   1.933       .  S
C804        C805   1.415       .  A
C805        C806   1.409       .  A
C805       Br812   1.931       .  S
C806        C807   1.407       .  A
C806       Br811   1.931       .  S
C807        C808   1.409       .  A
C808       Br809   1.933       .  S
C813        C814   1.404       .  A
C813        C818   1.409       .  A
C813       Br820   1.932       .  S
C814        C815   1.410       .  A
C815        C816   1.407       .  A
C815       Br822   1.932       .  S
C816        C817   1.412       .  A
C816       Br821   1.932       .  S
C817        C818   1.423       .  A
C818       Br819   1.935       .  S
C823        C824   1.415       .  A
C823        C828   1.409       .  A
C823       Br830   1.931       .  S
C824        C825   1.412       .  A
C825        C826   1.408       .  A
C825       Br832   1.933       .  S
C826        C827   1.412       .  A
C826       Br831   1.933       .  S
C827        C828   1.408       .  A
C828       Br829   1.931       .  S
C833        C834   1.414       .  A
C833        C838   1.411       .  A
C833       Br840   1.930       .  S
C834        C835   1.421       .  A
C835        C836   1.409       .  A
C835       Br842   1.933       .  S
C836        C837   1.406       .  A
C836       Br841   1.930       .  S
C837        C838   1.410       .  A
C838       Br839   1.930       .  S
C843        C844   1.418       .  A
C843        C848   1.410       .  A
C843       Br850   1.932       .  S
C844        C845   1.418       .  A
C845        C846   1.413       .  A
C845       Br852   1.932       .  S
C846        C847   1.408       .  A
C846       Br851   1.928       .  S
C847        C848   1.407       .  A
C848       Br849   1.931       .  S
C853        C854   1.419       .  A
C853        C858   1.407       .  A
C853       Br860   1.936       .  S
C854        C855   1.426       .  A
C855        C856   1.413       .  A
C855       Br862   1.931       .  S
C856        C857   1.407       .  A
C856       Br861   1.933       .  S
C857        C858   1.411       .  A
C858       Br859   1.937       .  S
C863        C864   1.418       .  A
C863        C868   1.412       .  A
C863       Br870   1.931       .  S
C864        C865   1.412       .  A
C865        C866   1.409       .  A
C865       Br872   1.925       .  S
C866        C867   1.411       .  A
C866       Br871   1.933       .  S
C867        C868   1.409       .  A
C868       Br869   1.930       .  S
C873        C874   1.416       .  A
C873        C878   1.420       .  A
C873       Br880   1.928       .  S
C874        C875   1.419       .  A
C875        C876   1.396       .  A
C875       Br882   1.932       .  S
C876        C877   1.404       .  A
C876       Br881   1.935       .  S
C877        C878   1.416       .  A
C878       Br879   1.920       .  S
C883        C884   1.420       .  A
C883        C888   1.414       .  A
C883       Br890   1.930       .  S
C884        C885   1.416       .  A
C885        C886   1.399       .  A
C885       Br892   1.936       .  S
C886        C887   1.414       .  A
C886       Br891   1.937       .  S
C887        C888   1.412       .  A
C888       Br889   1.931       .  S
C893        C894   1.411       .  A
C893        C898   1.408       .  A
C893       Br900   1.928       .  S
C894        C895   1.409       .  A
C895        C896   1.406       .  A
C895       Br902   1.931       .  S
C896        C897   1.412       .  A
C896       Br901   1.934       .  S
C897        C898   1.410       .  A
C898       Br899   1.932       .  S
C903        C904   1.416       .  A
C903        C908   1.406       .  A
C903       Br910   1.935       .  S
C904        C905   1.418       .  A
C905        C906   1.416       .  A
C905       Br912   1.934       .  S
C906        C907   1.421       .  A
C906       Br911   1.935       .  S
C907        C908   1.414       .  A
C908       Br909   1.933       .  S
C913        C914   1.403       .  A
C913        C918   1.401       .  A
C913       Br920   1.930       .  S
C914        C915   1.407       .  A
C915        C916   1.402       .  A
C915       Br922   1.932       .  S
C916        C917   1.412       .  A
C916       Br921   1.934       .  S
C917        C918   1.409       .  A
C918       Br919   1.920       .  S
C923        C924   1.416       .  A
C923        C928   1.406       .  A
C923       Br930   1.933       .  S
C924        C925   1.415       .  A
C925        C926   1.401       .  A
C925       Br932   1.933       .  S
C926        C927   1.411       .  A
C926       Br931   1.935       .  S
C927        C928   1.413       .  A
C928       Br929   1.936       .  S
C933        C934   1.414       .  A
C933        C938   1.407       .  A
C933       Br940   1.931       .  S
C934        C935   1.408       .  A
C935        C936   1.405       .  A
C935       Br942   1.934       .  S
C936        C937   1.420       .  A
C936       Br941   1.936       .  S
C937        C938   1.414       .  A
C938       Br939   1.934       .  S
C943        C944   1.420       .  A
C943        C948   1.407       .  A
C943       Br950   1.934       .  S
C944        C945   1.414       .  A
C945        C946   1.402       .  A
C945       Br952   1.936       .  S
C946        C947   1.407       .  A
C946       Br951   1.930       .  S
C947        C948   1.403       .  A
C948       Br949   1.932       .  S
C953        C954   1.415       .  A
C953        C958   1.403       .  A
C953       Br960   1.934       .  S
C954        C955   1.410       .  A
C955        C956   1.403       .  A
C955       Br962   1.930       .  S
C956        C957   1.406       .  A
C956       Br961   1.929       .  S
C957        C958   1.408       .  A
C958       Br959   1.933       .  S
C963        C964   1.406       .  A
C963        C968   1.405       .  A
C963       Br970   1.930       .  S
C964        C965   1.409       .  A
C965        C966   1.406       .  A
C965       Br972   1.934       .  S
C966        C967   1.414       .  A
C966       Br971   1.934       .  S
C967        C968   1.410       .  A
C968       Br969   1.931       .  S
C973        C974   1.422       .  A
C973        C978   1.410       .  A
C973       Br980   1.931       .  S
C974        C975   1.421       .  A
C975        C976   1.404       .  A
C975       Br982   1.938       .  S
C976        C977   1.414       .  A
C976       Br981   1.936       .  S
C977        C978   1.416       .  A
C978       Br979   1.937       .  S
C983        C984   1.421       .  A
C983        C988   1.412       .  A
C983       Br990   1.932       .  S
C984        C985   1.428       .  A
C985        C986   1.406       .  A
C985       Br992   1.938       .  S
C986        C987   1.409       .  A
C986       Br991   1.940       .  S
C987        C988   1.411       .  A
C988       Br989   1.931       .  S
C993        C994   1.417       .  A
C993        C998   1.408       .  A
C993      Br1000   1.936       .  S
C994        C995   1.421       .  A
C995        C996   1.404       .  A
C995      Br1002   1.937       .  S
C996        C997   1.415       .  A
C996      Br1001   1.940       .  S
C997        C998   1.416       .  A
C998       Br999   1.933       .  S
C1003      C1004   1.407       .  A
C1003      C1008   1.412       .  A
C1003     Br1010   1.932       .  S
C1004      C1005   1.412       .  A
C1005      C1006   1.411       .  A
C1005     Br1012   1.931       .  S
C1006      C1007   1.412       .  A
C1006     Br1011   1.930       .  S
C1007      C1008   1.423       .  A
C1008     Br1009   1.933       .  S
C1013      C1014   1.416       .  A
C1013      C1018   1.414       .  A
C1013     Br1020   1.930       .  S
C1014      C1015   1.416       .  A
C1015      C1016   1.414       .  A
C1015     Br1022   1.931       .  S
C1016      C1017   1.411       .  A
C1016     Br1021   1.930       .  S
C1017      C1018   1.412       .  A
C1018     Br1019   1.930       .  S
C1023      C1024   1.409       .  A
C1023      C1028   1.410       .  A
C1023     Br1030   1.929       .  S
C1024      C1025   1.410       .  A
C1025      C1026   1.406       .  A
C1025     Br1032   1.933       .  S
C1026      C1027   1.411       .  A
C1026     Br1031   1.930       .  S
C1027      C1028   1.413       .  A
C1028     Br1029   1.931       .  S
