geometry optimzed in LAMMPS
_audit_creation_date              2020-11-30 
_audit_creation_method            'lammps2cif' 
_symmetry_space_group_name_H-M    'P1' 
_symmetry_Int_Tables_number       1 
_symmetry_cell_setting            triclinic 
loop_ 
_symmetry_equiv_pos_as_xyz 
  x,y,z 
_cell_length_a                    28.199598038116118 
_cell_length_b                    28.55475999385397 
_cell_length_c                    30.15017719652262 
_cell_angle_alpha                 91.43811538376148 
_cell_angle_beta                  85.8631969101177 
_cell_angle_gamma                 89.69798447814246 
loop_ 
_atom_site_label 
_atom_site_type_symbol 
_atom_site_fract_x 
_atom_site_fract_y 
_atom_site_fract_z 
_atom_site_charge 
O1          O  0.53537164  0.39199987  0.47085219    -0.81720
O2          O  0.47233661  0.55678337  0.59618697    -0.66410
O3          O  0.47912271  0.46997182  0.49858126    -1.13010
C4          C  0.59868409  0.57347583  0.44263175     1.05170
O5          O  0.46635024  0.61504955  0.54957030    -0.79610
O6          O  0.48254257  0.60455740  0.46022213    -0.67190
Ni7        Ni  0.47683590  0.40437325  0.50614097     1.34870
C8          C  0.47225660  0.57332748  0.43175095     0.83910
O9          O  0.42356225  0.48011837  0.57935483    -0.80150
O10         O  0.41807959  0.41176144  0.54165546    -0.90430
C11         C  0.45680046  0.59697580  0.58731866     0.83480
O12         O  0.51093591  0.40083733  0.55849798    -0.68630
O13         O  0.57821202  0.60419746  0.46901353    -0.87920
C14         C  0.52854113  0.43119342  0.58388229     0.84310
C15         C  0.40310211  0.44145905  0.57191251     1.05880
H16         H  0.55543561  0.53719172  0.53352324     0.37680
O17         O  0.52723842  0.54143236  0.51761871    -1.10580
O18         O  0.48867668  0.53145354  0.43144198    -0.67230
Ni19       Ni  0.53236700  0.49897732  0.46792955     1.26350
O20         O  0.52064888  0.47521182  0.58157720    -0.67460
O21         O  0.58483103  0.53120757  0.43864675    -0.79750
C22         C  0.55154665  0.40933197  0.43441796     0.83690
O23         O  0.54017766  0.45038888  0.42309032    -0.66930
Ni24       Ni  0.52223850  0.60679502  0.50904560     1.27450
Ni25       Ni  0.47593103  0.51102840  0.54914886     1.26060
H26         H  0.45133476  0.47688714  0.48293763     0.38240
O27         O  0.03870071  0.58039054  0.41094271    -0.81720
O28         O  0.95154719  0.42298340  0.54254602    -0.66410
O29         O  0.98296082  0.53376810  0.47628633    -1.13010
C30         C  0.06801345  0.57854265  0.59612281     1.05170
O31         O  0.94574118  0.46109617  0.60789053    -0.79610
O32         O  0.94068326  0.55031635  0.58709951    -0.67190
Ni33       Ni  0.99641523  0.52886161  0.41325494     1.34870
C34         C  0.94740800  0.58807623  0.56655248     0.83910
O35         O  0.92194403  0.45594076  0.46959716    -0.80150
O36         O  0.95598917  0.47661381  0.40446538    -0.90430
C37         C  0.93434237  0.42766403  0.58262317     0.83480
O38         O  0.04819426  0.48940119  0.42105050    -0.68630
O39         O  0.02968626  0.56392225  0.61540986    -0.87280
C40         C  0.05092656  0.45306232  0.44400156     0.84310
C41         C  0.92538084  0.45396123  0.42769466     1.05880
H42         H  0.04007882  0.47776322  0.54735009     0.37680
O43         O  0.01354838  0.49930622  0.54721536    -1.10580
O44         O  0.98602834  0.59674676  0.54367608    -0.67230
Ni45       Ni  0.03232977  0.55325910  0.51417522     1.26350
O46         O  0.01928284  0.44118036  0.47451105    -0.67460
O47         O  0.07870453  0.57055279  0.55492727    -0.79750
C48         C  0.05996635  0.60715414  0.43685713     0.83690
O49         O  0.05508142  0.60463850  0.47892094    -0.66930
Ni50       Ni  0.98915638  0.51165271  0.60692651     1.27450
Ni51       Ni  0.96823260  0.47713450  0.50786177     1.26060
H52         H  0.95580179  0.55445149  0.48084177     0.38240
O53         O  0.54526056  0.60409020  0.07221035    -0.81720
O54         O  0.46366435  0.47694172  0.93348242    -0.66410
O55         O  0.47642000  0.54680726  0.04162534    -1.13010
C56         C  0.57251347  0.41750617  0.07374212     1.05170
O57         O  0.44526280  0.41593517  0.97435560    -0.79610
O58         O  0.45281876  0.41197228  0.06137534    -0.67190
Ni59       Ni  0.48921217  0.61169874  0.04162067     1.34870
C60         C  0.44577855  0.43992288  0.09460165     0.83910
O61         O  0.42747752  0.55939788  0.96556168    -0.80150
O62         O  0.43390780  0.62274663  0.01088283    -0.90430
C63         C  0.44855780  0.43529047  0.93694359     0.83480
O64         O  0.52828727  0.61448515  0.98748769    -0.68630
O65         O  0.54769939  0.39452921  0.04717623    -0.87920
C66         C  0.54105202  0.58494313  0.95680896     0.84310
C67         C  0.41604715  0.60108809  0.97875012     1.05880
H68         H  0.54396986  0.47277236  0.99197245     0.37680
O69         O  0.51403946  0.47153072  0.00963678    -1.10580
O70         O  0.47083922  0.47622349  0.10012341    -0.67230
Ni71       Ni  0.52192010  0.50525227  0.06405058     1.26350
O72         O  0.52317485  0.54423344  0.95422704    -0.67460
O73         O  0.56698999  0.46111702  0.08342800    -0.79750
C74         C  0.54488946  0.58616264  0.11014187     0.83690
O75         O  0.53120391  0.54425497  0.11557290    -0.66930
Ni76       Ni  0.49699900  0.40763693  0.01099210     1.27450
Ni77       Ni  0.47044997  0.51432509  0.98651210     1.26060
H78         H  0.44647614  0.54357244  0.05893075     0.38240
O79         O  0.45232900  0.09576274  0.47577728    -0.81720
O80         O  0.54762798  0.95857819  0.59890068    -0.66410
O81         O  0.52329891  0.03803261  0.50261528    -1.13010
C82         C  0.42553332  0.91114886  0.46091950     1.05170
O83         O  0.55837396  0.89856201  0.55136358    -0.79610
O84         O  0.53767369  0.89611672  0.46605990    -0.67190
Ni85       Ni  0.50667426  0.10198666  0.51003220     1.34870
C86         C  0.55013927  0.92709214  0.43810489     0.83910
O87         O  0.57971110  0.04391004  0.57449962    -0.80150
O88         O  0.56003429  0.11248468  0.54434761    -0.90430
C89         C  0.56595429  0.91850562  0.58834674     0.83480
O90         O  0.46622602  0.09796740  0.56296632    -0.68630
O91         O  0.44352510  0.88756771  0.49096769    -0.87920
C92         C  0.46100822  0.06889815  0.59403621     0.84310
C93         C  0.58515197  0.08780116  0.56857212     1.05880
H94         H  0.45856316  0.96405164  0.54665109     0.37680
O95         O  0.48787396  0.96117275  0.52809314    -1.10580
O96         O  0.53267722  0.96846572  0.44009813    -0.67230
Ni97       Ni  0.47974795  0.99683952  0.47640456     1.26350
O98         O  0.48396414  0.03000900  0.59374525    -0.67460
O99         O  0.43682625  0.95327298  0.45190248    -0.79750
C100        C  0.45411970  0.07914874  0.43626840     0.83690
O101        O  0.47021330  0.03787353  0.42775659    -0.66930
Ni102      Ni  0.50034126  0.89589463  0.52145572     1.27450
Ni103      Ni  0.53387240  0.00122546  0.55275952     1.26060
H104        H  0.55269334  0.03749208  0.48405447     0.38240
O105        O  0.05019695  0.45240235  0.91363632    -0.81720
O106        O  0.90057613  0.55662949  0.03965587    -0.66410
O107        O  0.01494580  0.52723706  0.96817267    -1.13010
C108        C  0.05613142  0.45021222  0.09792307     1.05170
O109        O  0.94715581  0.58112927  0.09154040    -0.79610
O110        O  0.04049401  0.56785262  0.09239810    -0.67190
Ni111      Ni  0.01543983  0.50950634  0.90736535     1.34870
C112        C  0.07710565  0.56471278  0.06553531     0.83910
O113        O  0.92913326  0.57678534  0.95480712    -0.80150
O114        O  0.98014768  0.56486936  0.89506424    -0.90430
C115        C  0.90684717  0.57951116  0.07561085     0.83480
O116        O  0.95838056  0.47451849  0.91091815    -0.68630
O117        O  0.02687223  0.47861877  0.11881477    -0.87920
C118        C  0.92391169  0.46700654  0.93932131     0.84310
C119        C  0.94208347  0.58282541  0.91372593     1.05880
H120        H  0.96423581  0.47492050  0.04796861     0.37680
O121        O  0.98290850  0.50305298  0.04458576    -1.10580
O122        O  0.08061663  0.53554245  0.03249631    -0.67230
Ni123      Ni  0.03989272  0.48601602  0.01041018     1.26350
O124        O  0.92120046  0.48588047  0.97848050    -0.67460
O125        O  0.06190282  0.44661011  0.05546586    -0.79750
C126        C  0.08765538  0.44592177  0.93361972     0.83690
O127        O  0.09342512  0.46555904  0.97126721    -0.66930
Ni128      Ni  0.98654091  0.52884213  0.10279016     1.27450
Ni129      Ni  0.95554219  0.54041872  0.00080452     1.26060
H130        H  0.03295975  0.55589959  0.96888161     0.38240
O131        O  0.12408969  0.05896891  0.44351312    -0.81720
O132        O  0.99331123  0.95500537  0.58458282    -0.66410
O133        O  0.06852833  0.98832716  0.48087670    -1.13010
C134        C  0.93272849  0.08596696  0.46074377     1.05170
O135        O  0.93160964  0.94703988  0.54355755    -0.79610
O136        O  0.91937005  0.98072757  0.46268728    -0.67190
Ni137      Ni  0.13162377  0.00992091  0.48412719     1.34870
C138        C  0.94922935  0.96962454  0.43064807     0.83910
O139        O  0.07965909  0.92766205  0.55109755    -0.80150
O140        O  0.14632955  0.96302573  0.52510792    -0.90430
C141        C  0.95381890  0.93647172  0.57714918     0.83480
O142        O  0.11771999  0.05399033  0.53179133    -0.68630
O143        O  0.91306152  0.06863476  0.49604139    -0.87920
C144        C  0.09265294  0.04957056  0.56810135     0.84310
C145        C  0.12463606  0.93336114  0.54967228     1.05880
H146        H  0.99410105  0.04711274  0.53596669     0.37680
O147        O  0.99041150  0.01944289  0.51746918    -1.10580
O148        O  0.99284519  0.98132541  0.42958734    -0.67230
Ni149      Ni  0.02225860  0.03156711  0.46201424     1.26350
O150        O  0.06145509  0.01786536  0.57397581    -0.67460
O151        O  0.97438055  0.07410109  0.44462940    -0.79750
C152        C  0.09779493  0.06566060  0.41185115     0.83690
O153        O  0.05848964  0.04524453  0.40858001    -0.66930
Ni154      Ni  0.92433240  0.00836667  0.52031134     1.27450
Ni155      Ni  0.03360507  0.97254608  0.53471796     1.26060
H156        H  0.06992188  0.96097503  0.46127901     0.38240
O157        O  0.46245653  0.89196724  0.04991602    -0.81720
O158        O  0.55987214  0.04568431  0.93366649    -0.66410
O159        O  0.52901353  0.96408339  0.03021656    -1.13010
C160        C  0.41657792  0.07050661  0.08144483     1.05170
O161        O  0.53575555  0.11318379  0.96654641    -0.79610
O162        O  0.54473503  0.08443540  0.04791888    -0.67190
Ni163      Ni  0.52543451  0.89803020  0.02187553     1.34870
C164        C  0.54169859  0.06560497  0.08528043     0.83910
O165        O  0.59941396  0.96800200  0.96201303    -0.80150
O166        O  0.58788735  0.89826799  0.99401812    -0.90430
C167        C  0.56002706  0.09037601  0.93628296     0.83480
O168        O  0.49757092  0.89673980  0.96618829    -0.68630
O169        O  0.44864326  0.09902546  0.06839364    -0.87920
C170        C  0.48883152  0.92720974  0.93792620     0.84310
C171        C  0.61315421  0.92687133  0.97110822     1.05880
H172        H  0.46175641  0.03235779  0.98189332     0.37680
O173        O  0.48649261  0.03595555  0.00208868    -1.10580
O174        O  0.51148311  0.03271677  0.09377806    -0.67230
Ni175      Ni  0.47355717  0.99584497  0.05175952     1.26350
O176        O  0.50501601  0.96883471  0.93955663    -0.67460
O177        O  0.41731728  0.02780751  0.07046317    -0.79750
C178        C  0.44588296  0.91072715  0.08636272     0.83690
O179        O  0.45890414  0.95166079  0.09771801    -0.66930
Ni180      Ni  0.49236304  0.10072372  0.01638004     1.27450
Ni181      Ni  0.54330980  0.00299958  0.98068753     1.26060
H182        H  0.55330878  0.96933447  0.05076398     0.38240
O183        O  0.97336614  0.07770601  0.11204424    -0.81720
O184        O  0.03287052  0.90847560  0.98080210    -0.66410
O185        O  0.02646001  0.02444171  0.04683782    -1.13010
C186        C  0.92690968  0.07273633  0.93447326     1.05170
O187        O  0.03880178  0.94355726  0.91602485    -0.79610
O188        O  0.03760004  0.03451917  0.91155709    -0.67190
Ni189      Ni  0.01857609  0.02741321  0.11016002     1.34870
C190        C  0.05273564  0.06712667  0.93594510     0.83910
O191        O  0.07398563  0.93753476  0.05154340    -0.80150
O192        O  0.06200628  0.97647771  0.11684640    -0.90430
C193        C  0.05136349  0.91181161  0.94134956     0.83480
O194        O  0.96685968  0.98598046  0.11409101    -0.68630
O195        O  0.94178434  0.03664718  0.91197598    -0.87920
C196        C  0.95522043  0.95028872  0.09172753     0.84310
C197        C  0.08065612  0.94336274  0.09246551     1.05880
H198        H  0.95111384  0.97929841  0.98942100     0.37680
O199        O  0.98155083  0.99340351  0.98163811    -1.10580
O200        O  0.03347656  0.07841498  0.97449526    -0.67230
Ni201      Ni  0.98063469  0.05331939  0.01146233     1.26350
O202        O  0.97641385  0.93759721  0.05420536    -0.67460
O203        O  0.93644199  0.08150313  0.97443187    -0.79750
C204        C  0.96226156  0.11045647  0.08701586     0.83690
O205        O  0.97647496  0.11078595  0.04600218    -0.66930
Ni206      Ni  0.98900198  0.98943739  0.91804475     1.27450
Ni207      Ni  0.02796374  0.96493940  0.01633170     1.26060
H208        H  0.05704139  0.03854022  0.03970494     0.38240
O209        O  0.77353711  0.82387835  0.15625402    -0.81720
O210        O  0.73904532  0.68079487  0.30042555    -0.66410
O211        O  0.72524785  0.78988818  0.23336058    -1.13010
C212        C  0.83938715  0.85346571  0.32376764     1.05170
O213        O  0.73530560  0.72190046  0.36402108    -0.79610
O214        O  0.72176260  0.81400989  0.35744645    -0.67190
Ni215      Ni  0.71817680  0.78639383  0.17131078     1.34870
C216        C  0.70877245  0.84683430  0.33331213     0.83910
O217        O  0.68267566  0.70137783  0.23700377    -0.80150
O218        O  0.66322529  0.74747206  0.18161731    -0.90430
C219        C  0.72975199  0.68385799  0.34214847     0.83480
O220        O  0.75600910  0.73192258  0.15736506    -0.68630
O221        O  0.81931366  0.82734516  0.35310322    -0.87920
C222        C  0.78062328  0.70507645  0.17971661     0.84310
C223        C  0.65760460  0.71075525  0.20483012     1.05880
H224        H  0.81145762  0.75270998  0.28382088     0.37680
O225        O  0.78127952  0.76787561  0.29206940    -1.10580
O226        O  0.73122405  0.85741451  0.29659940    -0.67230
Ni227      Ni  0.77735927  0.82222026  0.25698382     1.26350
O228        O  0.77864672  0.70651972  0.22206240    -0.67460
O229        O  0.82911799  0.85322095  0.28327597    -0.79750
C230        C  0.78953356  0.86024442  0.17514212     0.83690
O231        O  0.77608036  0.87123228  0.21530698    -0.66930
Ni232      Ni  0.77672156  0.77486793  0.35499019     1.27450
Ni233      Ni  0.73206909  0.73417942  0.26506366     1.26060
H234        H  0.69605950  0.80437493  0.24576225     0.38240
O235        O  0.76898031  0.37971280  0.81470167    -0.81720
O236        O  0.72252758  0.23018465  0.67232679    -0.66410
O237        O  0.71799575  0.30800516  0.77703451    -1.13010
C238        C  0.82686001  0.19484307  0.82633605     1.05170
O239        O  0.72106376  0.16391232  0.70922758    -0.79610
O240        O  0.71933571  0.16683866  0.79715192    -0.67190
Ni241      Ni  0.72180209  0.37447490  0.77264077     1.34870
C242        C  0.70282586  0.19249466  0.82960588     0.83910
O243        O  0.67371580  0.30737132  0.69515645    -0.80150
O244        O  0.67400808  0.37734332  0.73035713    -0.90430
C245        C  0.71116616  0.18759999  0.67614138     0.83480
O246        O  0.77153659  0.37560409  0.72577438    -0.68630
O247        O  0.81501293  0.16872985  0.79426401    -0.87920
C248        C  0.78762699  0.34608028  0.69600454     0.84310
C249        C  0.65934707  0.34967605  0.70070339     1.05880
H250        H  0.79907754  0.24404051  0.73677559     0.37680
O251        O  0.76859067  0.23694666  0.75160956    -1.10580
O252        O  0.71604843  0.23509126  0.83650928    -0.67230
Ni253      Ni  0.76581366  0.27336515  0.80590114     1.26350
O254        O  0.77114736  0.30505185  0.69200883    -0.67460
O255        O  0.81232579  0.23682332  0.83351722    -0.79750
C256        C  0.78223918  0.35850744  0.84817578     0.83690
O257        O  0.76798399  0.31687590  0.85634194    -0.66930
Ni258      Ni  0.76824861  0.17054646  0.75153083     1.27450
Ni259      Ni  0.72084410  0.27103356  0.72318306     1.26060
H260        H  0.68752370  0.30202483  0.79253247     0.38240
O261        O  0.22717921  0.86508996  0.71727449    -0.81720
O262        O  0.28857285  0.73284770  0.86175729    -0.66410
O263        O  0.28769557  0.80272951  0.75678734    -1.13010
C264        C  0.18623303  0.68000997  0.71253036     1.05170
O265        O  0.30012387  0.66626967  0.82319845    -0.79610
O266        O  0.29683732  0.65849936  0.73489405    -0.67190
Ni267      Ni  0.27551467  0.86852654  0.75975393     1.34870
C268        C  0.31241446  0.68575936  0.70475647     0.83910
O269        O  0.33427069  0.80989794  0.83490556    -0.80150
O270        O  0.32467283  0.87802515  0.80075059    -0.90430
C271        C  0.30129652  0.69031441  0.85901008     0.83480
O272        O  0.22617851  0.86963832  0.80709515    -0.68630
O273        O  0.20079059  0.65642000  0.74416206    -0.87920
C274        C  0.21428689  0.84109160  0.83750264     0.84310
C275        C  0.34588252  0.85227426  0.82738186     1.05880
H276        H  0.21188667  0.73630326  0.79881995     0.37680
O277        O  0.24277798  0.73045422  0.78380822    -1.10580
O278        O  0.29675154  0.72725892  0.70044207    -0.67230
Ni279      Ni  0.24387639  0.76249402  0.72951292     1.26350
O280        O  0.23607159  0.80279010  0.84221054    -0.67460
O281        O  0.20045034  0.72105069  0.70327454    -0.79750
C282        C  0.22567894  0.84023218  0.68162359     0.83690
O283        O  0.24298913  0.79914426  0.67798801    -0.66930
Ni284      Ni  0.25028138  0.66431192  0.78352572     1.27450
Ni285      Ni  0.28806066  0.76951342  0.81043422     1.26060
H286        H  0.31871101  0.79867084  0.74130068     0.38240
O287        O  0.29974524  0.29141551  0.66831957    -0.81720
O288        O  0.22957393  0.14814130  0.80973514    -0.66410
O289        O  0.23843327  0.24865132  0.72939512    -1.13010
C290        C  0.34567687  0.31160632  0.83085623     1.05170
O291        O  0.22807229  0.19798361  0.86780223    -0.79610
O292        O  0.24471880  0.28985627  0.86737487    -0.67190
Ni293      Ni  0.25562102  0.24077517  0.66822127     1.34870
C294        C  0.22098947  0.31425173  0.84199876     0.83910
O295        O  0.18880113  0.16465727  0.73210146    -0.80150
O296        O  0.21139751  0.19070791  0.66380288    -0.90430
C297        C  0.21410834  0.16058991  0.84912858     0.83480
O298        O  0.30726483  0.19852097  0.67305486    -0.68630
O299        O  0.33950953  0.27401293  0.85255696    -0.87920
C300        C  0.31350326  0.16469739  0.69849189     0.84310
C301        C  0.18516091  0.16558038  0.68989144     1.05880
H302        H  0.31486598  0.21528545  0.78608781     0.37680
O303        O  0.28444667  0.22939013  0.79541605    -1.10580
O304        O  0.22694621  0.31048579  0.79971157    -0.67230
Ni305      Ni  0.28044526  0.28502372  0.76273874     1.26350
O306        O  0.28623035  0.15746130  0.73340594    -0.67460
O307        O  0.32321228  0.32085181  0.79691656    -0.79750
C308        C  0.29081006  0.33208283  0.68492577     0.83690
O309        O  0.27584264  0.33744777  0.72539496    -0.66930
Ni310      Ni  0.28403601  0.23521796  0.85804518     1.27450
Ni311      Ni  0.23621581  0.19557289  0.76591777     1.26060
H312        H  0.20733853  0.26327802  0.73209253     0.38240
O313        O  0.28176961  0.84164011  0.32147059    -0.81720
O314        O  0.22575597  0.70029878  0.16566477    -0.66410
O315        O  0.23804953  0.77105145  0.27387353    -1.13010
C316        C  0.34140182  0.65029820  0.31060654     1.05170
O317        O  0.22406050  0.63098151  0.19797955    -0.79610
O318        O  0.21353346  0.64611539  0.28728467    -0.67190
Ni319      Ni  0.24781647  0.83709287  0.26955836     1.34870
C320        C  0.21316050  0.67070350  0.32296965     0.83910
O321        O  0.18242795  0.77630455  0.20021385    -0.80150
O322        O  0.21490393  0.84447068  0.21673369    -0.90430
C323        C  0.21473606  0.65720618  0.16597950     0.83480
O324        O  0.30553384  0.82515092  0.23587326    -0.68630
O325        O  0.31002943  0.62484373  0.29324768    -0.87920
C326        C  0.30868400  0.80712796  0.19696846     0.84310
C327        C  0.18610745  0.82015200  0.19579909     1.05880
H328        H  0.30982675  0.70003712  0.21862059     0.37680
O329        O  0.28148959  0.69795152  0.23847573    -1.10580
O330        O  0.24571999  0.69979432  0.33068107    -0.67230
Ni331      Ni  0.29040571  0.73344325  0.29168905     1.26350
O332        O  0.28072141  0.77458239  0.18477217    -0.67460
O333        O  0.34157439  0.69452499  0.30709027    -0.79750
C334        C  0.30163314  0.81489452  0.34735458     0.83690
O335        O  0.30163499  0.77068326  0.34334547    -0.66930
Ni336      Ni  0.26675718  0.63294062  0.24588409     1.27450
Ni337      Ni  0.23243802  0.73718454  0.21863377     1.26060
H338        H  0.20969189  0.76618454  0.29310271     0.38240
O339        O  0.71355167  0.34363480  0.20255857    -0.81720
O340        O  0.78569397  0.20845671  0.34938917    -0.66410
O341        O  0.76557885  0.27806106  0.24592174    -1.13010
C342        C  0.67363948  0.14691485  0.20566431     1.05170
O343        O  0.79732347  0.14122080  0.31151216    -0.79610
O344        O  0.79903712  0.14873235  0.22386813    -0.67190
Ni345      Ni  0.74683775  0.34221244  0.25472393     1.34870
C346        C  0.80119901  0.17627405  0.19141351     0.83910
O347        O  0.82074942  0.28808897  0.31882408    -0.80150
O348        O  0.77882379  0.35197986  0.30787168    -0.90430
C349        C  0.80522037  0.16848391  0.34413353     0.83480
O350        O  0.69061500  0.32394261  0.28740370    -0.68630
O351        O  0.70331180  0.12290478  0.22574197    -0.87920
C352        C  0.69071096  0.30522515  0.32498028     0.84310
C353        C  0.81264970  0.33150113  0.32505439     1.05880
H354        H  0.70174170  0.20192916  0.29646598     0.37680
O355        O  0.73048067  0.20121045  0.27695557    -1.10580
O356        O  0.76908457  0.20660100  0.18577089    -0.67230
Ni357      Ni  0.71896780  0.23520363  0.22517767     1.26350
O358        O  0.72358987  0.27705055  0.33509372    -0.67460
O359        O  0.67337168  0.19146743  0.20662196    -0.79750
C360        C  0.69906900  0.31517097  0.17392523     0.83690
O361        O  0.70469893  0.27120808  0.17536871    -0.66930
Ni362      Ni  0.74977851  0.13671114  0.26876870     1.27450
Ni363      Ni  0.77506966  0.24461647  0.29884537     1.26060
H364        H  0.79451632  0.27675670  0.22670149     0.38240
O365        O  0.22343227  0.31892539  0.37627748    -0.81720
O366        O  0.28050939  0.17747227  0.23032014    -0.66410
O367        O  0.28332239  0.28693959  0.30352677    -1.13010
C368        C  0.18148446  0.34850348  0.20364637     1.05170
O369        O  0.28856826  0.21679846  0.16782385    -0.79610
O370        O  0.30472659  0.30594846  0.18587454    -0.67190
Ni371      Ni  0.27871690  0.27984620  0.36678731     1.34870
C372        C  0.30511185  0.34604347  0.20441578     0.83910
O373        O  0.32810552  0.19730829  0.30010397    -0.80150
O374        O  0.33338537  0.23914442  0.36336473    -0.90430
C375        C  0.29075804  0.17929301  0.18905614     0.83480
O376        O  0.23648128  0.22753145  0.37097458    -0.68630
O377        O  0.21000415  0.32556403  0.17656720    -0.87920
C378        C  0.21753044  0.20288309  0.34156615     0.84310
C379        C  0.34547992  0.20442904  0.33752925     1.05880
H380        H  0.20591279  0.24790681  0.24062748     0.37680
O381        O  0.23620328  0.26358131  0.23731815    -1.10580
O382        O  0.27839827  0.35636691  0.23961965    -0.67230
Ni383      Ni  0.23281442  0.31775982  0.27563092     1.26350
O384        O  0.23120176  0.20338499  0.30090241    -0.67460
O385        O  0.18182263  0.34549082  0.24577232    -0.79750
C386        C  0.21017117  0.35588707  0.35818711     0.83690
O387        O  0.22640889  0.36722996  0.31951625    -0.66930
Ni388      Ni  0.24957480  0.27123914  0.17600725     1.27450
Ni389      Ni  0.28267480  0.23099161  0.26782545     1.26060
H390        H  0.31279703  0.30291899  0.29591005     0.38240
O391        O  0.78717572  0.64759052  0.69011949    -0.81720
O392        O  0.72833765  0.78041055  0.84973124    -0.66410
O393        O  0.72648190  0.70926648  0.74115839    -1.13010
C394        C  0.83208296  0.83136200  0.69352347     1.05170
O395        O  0.70818789  0.83720814  0.80800094    -0.79610
O396        O  0.71985690  0.85458259  0.72243737    -0.67190
Ni397      Ni  0.73806824  0.64343534  0.73826636     1.34870
C398        C  0.70321593  0.82718621  0.69396441     0.83910
O399        O  0.68398346  0.70083440  0.82731264    -0.80150
O400        O  0.68986286  0.63365954  0.78632022    -0.90430
C401        C  0.71611629  0.82286127  0.84590271     0.83480
O402        O  0.78718680  0.64088793  0.77877801    -0.68630
O403        O  0.81540414  0.85511198  0.72753487    -0.87920
C404        C  0.79994056  0.66807238  0.80967010     0.84310
C405        C  0.67275116  0.65824361  0.81988427     1.05880
H406        H  0.80310656  0.77575930  0.77492495     0.37680
O407        O  0.77186631  0.78098311  0.76468667    -1.10580
O408        O  0.71742115  0.78483407  0.68805868    -0.67230
Ni409      Ni  0.77031426  0.74987626  0.70952487     1.26350
O410        O  0.78026625  0.70768274  0.81882219    -0.67460
O411        O  0.81523289  0.79196536  0.68108040    -0.79750
C412        C  0.79310459  0.67477447  0.65726437     0.83690
O413        O  0.77134925  0.71346691  0.65634569    -0.66930
Ni414      Ni  0.76175886  0.84610137  0.76816213     1.27450
Ni415      Ni  0.72776050  0.74187396  0.79691520     1.26060
H416        H  0.69524335  0.71390249  0.73071320     0.38240
C417        C  0.88318727  0.14981301  0.08787253    -0.09980
C418        C  0.92688197  0.14481017  0.10716174     0.06220
C419        C  0.92976450  0.15980331  0.15183577    -0.03750
C420        C  0.88864060  0.17326628  0.17774031    -0.08200
C421        C  0.84405708  0.17281659  0.15995832     0.05330
C422        C  0.84182103  0.16383363  0.11395608    -0.03220
Br423      Br  0.78234752  0.16423363  0.08686117    -0.02920
H424        H  0.88014341  0.13820667  0.05374723     0.09240
H425        H  0.89114614  0.18186696  0.21267724     0.07260
Br426      Br  0.98853487  0.15812431  0.18027310    -0.03350
C427        C  0.18271378  0.87436418  0.13369419    -0.09980
C428        C  0.15827472  0.84505979  0.16428615     0.06220
C429        C  0.10832468  0.84611001  0.16849515    -0.03750
C430        C  0.08375751  0.87762472  0.14356443    -0.08200
C431        C  0.10830874  0.90802891  0.11419952     0.05330
C432        C  0.15811352  0.90559425  0.10855218    -0.03220
Br433      Br  0.19407496  0.94669549  0.06996287    -0.02920
H434        H  0.22125904  0.87418603  0.13062488     0.09240
H435        H  0.04531042  0.87939320  0.14804551     0.07260
Br436      Br  0.07248901  0.80895303  0.21096247    -0.03350
C437        C  0.12935569  0.06525395  0.89002914    -0.09980
C438        C  0.09569116  0.09144814  0.91742076     0.06220
C439        C  0.10281334  0.13980752  0.92360387    -0.03750
C440        C  0.14209614  0.16100035  0.90155529    -0.08200
C441        C  0.17508606  0.13496647  0.87324322     0.05330
C442        C  0.16898669  0.08632993  0.86852267    -0.03220
Br443      Br  0.21471527  0.04647842  0.83565321    -0.02920
H444        H  0.12484079  0.02787161  0.88520873     0.09240
H445        H  0.14601405  0.19856181  0.90563120     0.07260
Br446      Br  0.05844213  0.17949027  0.95843582    -0.03350
C447        C  0.17771195  0.89227142  0.89822986    -0.09980
C448        C  0.17365054  0.85352409  0.86945013     0.06220
C449        C  0.13013221  0.82915225  0.87023575    -0.03750
C450        C  0.09084584  0.84540536  0.89781912    -0.08200
C451        C  0.09450544  0.88534791  0.92533170     0.05330
C452        C  0.13876861  0.90812782  0.92600638    -0.03220
Br453      Br  0.14628732  0.96447051  0.96074797    -0.02920
H454        H  0.21088107  0.91130034  0.89796714     0.09240
H455        H  0.05665724  0.82873352  0.89554585     0.07260
Br456      Br  0.12091123  0.77687682  0.83076722    -0.03350
C457        C  0.92464592  0.12479702  0.87103715    -0.09980
C458        C  0.90171013  0.10833069  0.91048884     0.06220
C459        C  0.85639273  0.12589123  0.92491993    -0.03750
C460        C  0.83401077  0.15812738  0.89879482    -0.08200
C461        C  0.85624480  0.17276801  0.85825614     0.05330
C462        C  0.90220915  0.15653773  0.84488069    -0.03220
Br463      Br  0.93473555  0.17556426  0.79027558    -0.02920
H464        H  0.95994737  0.11209907  0.86002134     0.09240
H465        H  0.79786489  0.16923478  0.90855702     0.07260
Br466      Br  0.82175230  0.10264071  0.97669892    -0.03350
C467        C  0.86603019  0.90158622  0.17810092    -0.09980
C468        C  0.82997053  0.88523699  0.15223486     0.06220
C469        C  0.83686125  0.88768398  0.10530413    -0.03750
C470        C  0.87878464  0.90702040  0.08558667    -0.08200
C471        C  0.91453371  0.92362200  0.11181961     0.05330
C472        C  0.90809489  0.91968599  0.15858315    -0.03220
Br473      Br  0.95645497  0.93579736  0.19813532    -0.02920
H474        H  0.86244216  0.89866763  0.21389257     0.09240
H475        H  0.88279732  0.91036955  0.04980130     0.07260
Br476      Br  0.78955257  0.86754874  0.06642696    -0.03350
C477        C  0.58554305  0.06066654  0.15593440    -0.09980
C478        C  0.57375384  0.08545454  0.11836688     0.06220
C479        C  0.59447405  0.13035355  0.11164037    -0.03750
C480        C  0.62756373  0.14739237  0.13971162    -0.08200
C481        C  0.63944439  0.12329039  0.17710064     0.05330
C482        C  0.61783289  0.07937876  0.18545150    -0.03220
Br483      Br  0.62931326  0.04463625  0.23726181    -0.02920
H484        H  0.56977602  0.02678247  0.16234644     0.09240
H485        H  0.64419257  0.18060817  0.13208282     0.07260
Br486      Br  0.57862771  0.17377187  0.06672902    -0.03350
C487        C  0.35071727  0.11764471  0.18430348    -0.09980
C488        C  0.31244634  0.13903348  0.16544829     0.06220
C489        C  0.30435810  0.13032501  0.12043754    -0.03750
C490        C  0.33738881  0.10419169  0.09383959    -0.08200
C491        C  0.37838829  0.08773544  0.11168317     0.05330
C492        C  0.38454886  0.09288929  0.15731756    -0.03220
Br493      Br  0.44066978  0.07117601  0.18320119    -0.02920
H494        H  0.35729768  0.12468063  0.21881251     0.09240
H495        H  0.33284736  0.09964954  0.05859626     0.07260
Br496      Br  0.25159495  0.15712473  0.09277890    -0.03350
C497        C  0.34232308  0.88004710  0.16830613    -0.09980
C498        C  0.34204336  0.83095534  0.16503747     0.06220
C499        C  0.37457171  0.80809827  0.13423253    -0.03750
C500        C  0.40833664  0.83465652  0.10922874    -0.08200
C501        C  0.40981854  0.88411342  0.11399138     0.05330
C502        C  0.37513713  0.90650486  0.14327366    -0.03220
Br503      Br  0.36728536  0.97281253  0.14962984    -0.02920
H504        H  0.31632468  0.89830905  0.19081135     0.09240
H505        H  0.43384837  0.81641390  0.08629348     0.07260
Br506      Br  0.37531822  0.74129268  0.12657638    -0.03350
C507        C  0.69997361  0.83714044  0.92663805    -0.09980
C508        C  0.70828491  0.85521546  0.88414147     0.06220
C509        C  0.70170545  0.90378880  0.87807691    -0.03750
C510        C  0.67643637  0.93020585  0.91112025    -0.08200
C511        C  0.65833831  0.90886740  0.94995927     0.05330
C512        C  0.67589371  0.86420166  0.96016551    -0.03220
Br513      Br  0.66467418  0.83668379  0.01747551    -0.02920
H514        H  0.70827074  0.80088940  0.93279232     0.09240
H515        H  0.66633045  0.96574980  0.90399020     0.07260
Br516      Br  0.72176740  0.93581233  0.82451706    -0.03350
C517        C  0.63623330  0.09551679  0.89055820    -0.09980
C518        C  0.59349136  0.11739384  0.90614532     0.06220
C519        C  0.58797126  0.16607592  0.89855622    -0.03750
C520        C  0.62454111  0.19107301  0.87545798    -0.08200
C521        C  0.66712203  0.16872781  0.85990724     0.05330
C522        C  0.67283170  0.12045741  0.86851315    -0.03220
Br523      Br  0.73103842  0.08626384  0.85331359    -0.02920
H524        H  0.64231472  0.05896187  0.89731600     0.09240
H525        H  0.61911790  0.22768950  0.86856370     0.07260
Br526      Br  0.53095486  0.20049339  0.91713508    -0.03350
C527        C  0.46001417  0.86532490  0.88718867    -0.09980
C528        C  0.45700023  0.91215474  0.90281442     0.06220
C529        C  0.41925512  0.94026156  0.88963097    -0.03750
C530        C  0.38431038  0.92050775  0.86407654    -0.08200
C531        C  0.38582672  0.87285748  0.85103507     0.05330
C532        C  0.42545232  0.84576332  0.86136300    -0.03220
Br533      Br  0.43577013  0.78232060  0.83994167    -0.02920
H534        H  0.48909603  0.84327694  0.89602730     0.09240
H535        H  0.35469338  0.94218753  0.85587585     0.07260
Br536      Br  0.41046965  0.00453491  0.90827421    -0.03350
C537        C  0.11727755  0.06205239  0.64506897    -0.09980
C538        C  0.10304140  0.08120546  0.60554333     0.06220
C539        C  0.10766559  0.12958159  0.59936066    -0.03750
C540        C  0.12989956  0.15716342  0.63043704    -0.08200
C541        C  0.14931866  0.13733458  0.66750290     0.05330
C542        C  0.14072696  0.08963716  0.67588740    -0.03220
Br543      Br  0.16553057  0.05898127  0.72510264    -0.02920
H544        H  0.11406091  0.02471697  0.65004603     0.09240
H545        H  0.13510431  0.19398073  0.62379851     0.07260
Br546      Br  0.08703707  0.15911186  0.54743245    -0.03350
C547        C  0.11074401  0.14797090  0.40212181    -0.09980
C548        C  0.11278946  0.10297587  0.38251205     0.06220
C549        C  0.14465756  0.09320987  0.34561641    -0.03750
C550        C  0.17692360  0.12739097  0.33121484    -0.08200
C551        C  0.17880404  0.17071288  0.35437032     0.05330
C552        C  0.14410539  0.18156035  0.38912279    -0.03220
Br553      Br  0.14181605  0.23980507  0.42229101    -0.02920
H554        H  0.08665163  0.15519475  0.43120418     0.09240
H555        H  0.20289437  0.11874081  0.30394554     0.07260
Br556      Br  0.14960127  0.03183223  0.31828172    -0.03350
C557        C  0.87683220  0.83894532  0.62064323    -0.09980
C558        C  0.87148844  0.85180073  0.66594541     0.06220
C559        C  0.90143116  0.88669882  0.68274138    -0.03750
C560        C  0.93141134  0.91170980  0.65331561    -0.08200
C561        C  0.93227213  0.90231154  0.60755128     0.05330
C562        C  0.90700280  0.86381955  0.59143067    -0.03220
Br563      Br  0.91162043  0.84418973  0.52980423    -0.02920
H564        H  0.85561683  0.81112675  0.60731520     0.09240
H565        H  0.95189389  0.94045221  0.66600432     0.07260
Br566      Br  0.90324588  0.90276581  0.74493822    -0.03350
C567        C  0.83170235  0.15974237  0.42099632    -0.09980
C568        C  0.84049785  0.15337602  0.37479502     0.06220
C569        C  0.88315085  0.13129715  0.35802747    -0.03750
C570        C  0.91431584  0.11340547  0.38714030    -0.08200
C571        C  0.90406273  0.11620717  0.43342171     0.05330
C572        C  0.86296784  0.14121803  0.45040579    -0.03220
Br573      Br  0.84774377  0.15157181  0.51296094    -0.02920
H574        H  0.79967411  0.17777075  0.43427323     0.09240
H575        H  0.94560912  0.09471198  0.37303227     0.07260
Br576      Br  0.90144599  0.12406676  0.29554407    -0.03350
C577        C  0.21772261  0.90392356  0.62955729    -0.09980
C578        C  0.20226195  0.86029420  0.64439033     0.06220
C579        C  0.16222494  0.83967816  0.62656788    -0.03750
C580        C  0.13836860  0.86298365  0.59439699    -0.08200
C581        C  0.15341208  0.90712081  0.57990435     0.05330
C582        C  0.19382658  0.92762684  0.59797242    -0.03220
Br583      Br  0.21620515  0.98990746  0.58562702    -0.02920
H584        H  0.24781247  0.92047149  0.64385208     0.09240
H585        H  0.10701375  0.84721921  0.58175245     0.07260
Br586      Br  0.13488967  0.78293143  0.64847645    -0.03350
C587        C  0.88995090  0.96166755  0.37475787    -0.09980
C588        C  0.93025974  0.94324135  0.39317654     0.06220
C589        C  0.94515344  0.89722800  0.38131993    -0.03750
C590        C  0.91710214  0.86906427  0.35491453    -0.08200
C591        C  0.87485336  0.88659185  0.33930671     0.05330
C592        C  0.86244391  0.93386059  0.34785807    -0.03220
Br593      Br  0.80488463  0.96013570  0.32852044    -0.02920
H594        H  0.87809995  0.99706588  0.38368525     0.09240
H595        H  0.92669580  0.83255150  0.34886907     0.07260
Br596      Br  0.99993789  0.86974794  0.40478427    -0.03350
C597        C  0.16008216  0.56942361  0.08759496    -0.09980
C598        C  0.11871473  0.59318014  0.07748550     0.06220
C599        C  0.11386448  0.64094551  0.09033517    -0.03750
C600        C  0.14789848  0.66264448  0.11580382    -0.08200
C601        C  0.18659861  0.63707776  0.13005303     0.05330
C602        C  0.19344646  0.59045496  0.11399699    -0.03220
Br603      Br  0.24656746  0.55290148  0.12863068    -0.02920
H604        H  0.16454809  0.53301156  0.07823302     0.09240
H605        H  0.14208793  0.69863173  0.12723657     0.07260
Br606      Br  0.05992005  0.67711184  0.07571052    -0.03350
C607        C  0.06959060  0.40646308  0.16686793    -0.09980
C608        C  0.08725278  0.42293688  0.12514510     0.06220
C609        C  0.13630742  0.41891072  0.11307932    -0.03750
C610        C  0.16613657  0.39936508  0.14225773    -0.08200
C611        C  0.14857231  0.37987671  0.18235581     0.05330
C612        C  0.09968792  0.38411660  0.19511760    -0.03220
Br613      Br  0.07201824  0.35804112  0.24891900    -0.02920
H614        H  0.03211191  0.41015113  0.17710466     0.09240
H615        H  0.20370441  0.39774512  0.13251920     0.07260
Br616      Br  0.16636834  0.43935716  0.05777210    -0.03350
C617        C  0.16894684  0.34071422  0.90843241    -0.09980
C618        C  0.18573025  0.34824858  0.86394430     0.06220
C619        C  0.16986187  0.38879702  0.84318246    -0.03750
C620        C  0.13942593  0.42079920  0.86726328    -0.08200
C621        C  0.12369033  0.41345315  0.91181049     0.05330
C622        C  0.13778985  0.37231882  0.93199734    -0.03220
Br623      Br  0.11137846  0.35482952  0.98954263    -0.02920
H624        H  0.17922455  0.30933714  0.92490052     0.09240
H625        H  0.12750561  0.45162901  0.85087851     0.07260
Br626      Br  0.18827044  0.40368501  0.78261710    -0.03350
C627        C  0.85461647  0.59676697  0.14296285    -0.09980
C628        C  0.86914609  0.60800501  0.09904637     0.06220
C629        C  0.85672826  0.65177914  0.08315332    -0.03750
C630        C  0.82769045  0.68226156  0.10994166    -0.08200
C631        C  0.81253808  0.67122125  0.15395956     0.05330
C632        C  0.82721759  0.62807792  0.17075582    -0.03220
Br633      Br  0.81311918  0.60974713  0.23110711    -0.02920
H634        H  0.86655349  0.56422287  0.15635236     0.09240
H635        H  0.81861055  0.71582669  0.09672620     0.07260
Br636      Br  0.88410788  0.67452534  0.02801333    -0.03350
C637        C  0.87426360  0.63892337  0.90654946    -0.09980
C638        C  0.91008415  0.60979799  0.88572687     0.06220
C639        C  0.91056950  0.60288346  0.83883321    -0.03750
C640        C  0.87559059  0.62380691  0.81496091    -0.08200
C641        C  0.83928409  0.65188758  0.83615095     0.05330
C642        C  0.83944999  0.66008640  0.88253535    -0.03220
Br643      Br  0.79065362  0.69588538  0.91604747    -0.02920
H644        H  0.87203522  0.64389114  0.94212879     0.09240
H645        H  0.87605065  0.61693609  0.77941377     0.07260
Br646      Br  0.95441440  0.56193322  0.80458099    -0.03350
C647        C  0.82423996  0.37673295  0.91979302    -0.09980
C648        C  0.81793931  0.38441643  0.87434665     0.06220
C649        C  0.84623427  0.41959579  0.85304582    -0.03750
C650        C  0.87692836  0.44658883  0.87669675    -0.08200
C651        C  0.88439810  0.43887331  0.92133535     0.05330
C652        C  0.85739130  0.40350642  0.94324991    -0.03220
Br653      Br  0.86621469  0.38923769  0.00381968    -0.02920
H654        H  0.80360516  0.34999776  0.93702099     0.09240
H655        H  0.89680130  0.47354843  0.85890842     0.07260
Br656      Br  0.84985365  0.43199551  0.79017444    -0.03350
C657        C  0.39908794  0.09080732  0.37581165    -0.09980
C658        C  0.43449642  0.10843457  0.40192100     0.06220
C659        C  0.44518753  0.15665643  0.40041904    -0.03750
C660        C  0.41788290  0.18687081  0.37662220    -0.08200
C661        C  0.37986860  0.17008047  0.35338572     0.05330
C662        C  0.37168379  0.12115513  0.35172131    -0.03220
Br663      Br  0.31967511  0.09435087  0.32231385    -0.02920
H664        H  0.39027638  0.05394331  0.37681689     0.09240
H665        H  0.42522072  0.22407781  0.37776630     0.07260
Br666      Br  0.49608206  0.18344901  0.43150178    -0.03350
C667        C  0.58466536  0.86614596  0.38529538    -0.09980
C668        C  0.58661296  0.91240233  0.40209333     0.06220
C669        C  0.62639093  0.93996492  0.38853878    -0.03750
C670        C  0.66497456  0.91951004  0.36241949    -0.08200
C671        C  0.66440770  0.87191148  0.34940393     0.05330
C672        C  0.62279655  0.84597344  0.35933013    -0.03220
Br673      Br  0.61729617  0.78166639  0.34002677    -0.02920
H674        H  0.55405149  0.84465582  0.39423203     0.09240
H675        H  0.69668057  0.93990678  0.35500392     0.07260
Br676      Br  0.63247438  0.00373308  0.40866394    -0.03350
C677        C  0.60295236  0.15268333  0.61866378    -0.09980
C678        C  0.61972452  0.11338335  0.59350574     0.06220
C679        C  0.66788885  0.10021683  0.59319404    -0.03750
C680        C  0.69840910  0.12643777  0.61861151    -0.08200
C681        C  0.68119993  0.16548515  0.64423096     0.05330
C682        C  0.63294713  0.17819168  0.64450505    -0.03220
Br683      Br  0.60440251  0.22606534  0.68356514    -0.02920
H684        H  0.56566702  0.16244639  0.61966652     0.09240
H685        H  0.73530618  0.11582931  0.61915342     0.07260
Br686      Br  0.69346124  0.04783628  0.55805722    -0.03350
C687        C  0.63272692  0.86213392  0.59650955    -0.09980
C688        C  0.59958474  0.89472248  0.61690897     0.06220
C689        C  0.59941108  0.90240307  0.66336757    -0.03750
C690        C  0.63241038  0.87884931  0.68773061    -0.08200
C691        C  0.66588444  0.84689781  0.66710307     0.05330
C692        C  0.66554413  0.83852527  0.62089932    -0.03220
Br693      Br  0.71154025  0.79848191  0.58851040    -0.02920
H694        H  0.63402194  0.85559756  0.56089520     0.09240
H695        H  0.63199263  0.88571001  0.72326995     0.07260
Br696      Br  0.55411842  0.94290088  0.69603571    -0.03350
C697        C  0.43620965  0.12839696  0.65207857    -0.09980
C698        C  0.42779078  0.08433683  0.63244093     0.06220
C699        C  0.38356502  0.06280213  0.64293863    -0.03750
C700        C  0.34744331  0.08731190  0.66917214    -0.08200
C701        C  0.35476657  0.13333528  0.68513009     0.05330
C702        C  0.40045203  0.15276659  0.67794857    -0.03220
Br703      Br  0.41449868  0.21465889  0.69954764    -0.02920
H704        H  0.46991815  0.14557063  0.64452635     0.09240
H705        H  0.31244382  0.07196287  0.67382572     0.07260
Br706      Br  0.36902821  0.00278641  0.61770536    -0.03350
C707        C  0.35656185  0.85800207  0.45200854    -0.09980
C708        C  0.39213365  0.88729324  0.43297562     0.06220
C709        C  0.39800168  0.89069618  0.38638611    -0.03750
C710        C  0.36765680  0.86649471  0.35994461    -0.08200
C711        C  0.33178763  0.83786509  0.37869003     0.05330
C712        C  0.32625247  0.83322676  0.42502410    -0.03220
Br713      Br  0.27698561  0.79537760  0.45236028    -0.02920
H714        H  0.35225092  0.85461881  0.48777583     0.09240
H715        H  0.37270945  0.86933580  0.32410880     0.07260
Br716      Br  0.44932137  0.92422612  0.35624385    -0.03350
C717        C  0.35815962  0.69566464  0.91637838    -0.09980
C718        C  0.32347820  0.66971784  0.89606065     0.06220
C719        C  0.31550879  0.62271930  0.90721889    -0.03750
C720        C  0.34456977  0.60143539  0.93631001    -0.08200
C721        C  0.38165261  0.62642097  0.95422843     0.05330
C722        C  0.38787658  0.67433424  0.94475108    -0.03220
Br723      Br  0.43997691  0.71123784  0.96376048    -0.02920
H724        H  0.36459894  0.73173411  0.90749371     0.09240
H725        H  0.33915584  0.56485463  0.94384530     0.07260
Br726      Br  0.26589372  0.58606840  0.88339995    -0.03350
C727        C  0.37081618  0.40638108  0.19993953    -0.09980
C728        C  0.33482952  0.38114300  0.18003062     0.06220
C729        C  0.33210817  0.38366969  0.13344122    -0.03750
C730        C  0.36597999  0.40800024  0.10782953    -0.08200
C731        C  0.40507819  0.42843428  0.12647822     0.05330
C732        C  0.40624937  0.42978217  0.17336456    -0.03220
Br733      Br  0.45753032  0.45856574  0.20207329    -0.02920
H734        H  0.37357158  0.40486738  0.23551700     0.09240
H735        H  0.36371763  0.40763231  0.07206477     0.07260
Br736      Br  0.28668443  0.35008203  0.10046169    -0.03350
C737        C  0.60287396  0.59694791  0.16707816    -0.09980
C738        C  0.56427903  0.61432444  0.14586275     0.06220
C739        C  0.55169219  0.66205686  0.15152020    -0.03750
C740        C  0.58046515  0.69250925  0.17430985    -0.08200
C741        C  0.62205222  0.67619939  0.19171023     0.05330
C742        C  0.63208714  0.62744016  0.18961683    -0.03220
Br743      Br  0.68881588  0.60063240  0.20994472    -0.02920
H744        H  0.61308237  0.56040956  0.16239939     0.09240
H745        H  0.57176731  0.72954993  0.17618048     0.07260
Br746      Br  0.49725833  0.68797185  0.12598403    -0.03350
C747        C  0.59372649  0.34675519  0.11211459    -0.09980
C748        C  0.60781651  0.39030955  0.09548577     0.06220
C749        C  0.65447047  0.40593669  0.09984149    -0.03750
C750        C  0.68583761  0.37818982  0.12175498    -0.08200
C751        C  0.67095455  0.33551303  0.14026791     0.05330
C752        C  0.62435592  0.31986772  0.13524637    -0.03220
Br753      Br  0.59729810  0.26708133  0.16574114    -0.02920
H754        H  0.55757182  0.33485142  0.10944011     0.09240
H755        H  0.72122370  0.39113692  0.12648619     0.07260
Br756      Br  0.67694745  0.46452737  0.07690703    -0.03350
C757        C  0.64502992  0.64804348  0.89863290    -0.09980
C758        C  0.63990839  0.63620209  0.85377639     0.06220
C759        C  0.60411181  0.60421498  0.84323761    -0.03750
C760        C  0.57333500  0.58629398  0.87735089    -0.08200
C761        C  0.57751399  0.59969716  0.92211567     0.05330
C762        C  0.61476327  0.62999041  0.93257076    -0.03220
Br763      Br  0.62790319  0.64669923  0.99260212    -0.02920
H764        H  0.67318941  0.67141704  0.90750368     0.09240
H765        H  0.54488174  0.56321228  0.86867449     0.07260
Br766      Br  0.59305380  0.58663987  0.78302135    -0.03350
C767        C  0.39183002  0.42534862  0.87838561    -0.09980
C768        C  0.43123811  0.40872776  0.89905031     0.06220
C769        C  0.44687187  0.36221901  0.89043854    -0.03750
C770        C  0.42042831  0.33176742  0.86515473    -0.08200
C771        C  0.37841382  0.34701290  0.84775080     0.05330
C772        C  0.36522953  0.39490908  0.85290896    -0.03220
Br773      Br  0.30765701  0.41957448  0.83205408    -0.02920
H774        H  0.37922644  0.46088890  0.88530921     0.09240
H775        H  0.43145683  0.29541894  0.86096240     0.07260
Br776      Br  0.50275139  0.33801907  0.91493169    -0.03350
C777        C  0.13716280  0.44660689  0.42630572    -0.09980
C778        C  0.09291601  0.42388581  0.43149440     0.06220
C779        C  0.08811982  0.37880191  0.41276068    -0.03750
C780        C  0.12670183  0.35807322  0.38785119    -0.08200
C781        C  0.17028542  0.38146562  0.38146990     0.05330
C782        C  0.17577873  0.42567526  0.40155855    -0.03220
Br783      Br  0.23490233  0.45860956  0.39561172    -0.02920
H784        H  0.14092706  0.48184448  0.43976553     0.09240
H785        H  0.12235982  0.32389672  0.37235915     0.07260
Br786      Br  0.02860088  0.34629351  0.41637174    -0.03350
C787        C  0.91793313  0.65617395  0.60965163    -0.09980
C788        C  0.91080504  0.62409835  0.57506802     0.06220
C789        C  0.86456309  0.61676107  0.56157666    -0.03750
C790        C  0.82556474  0.63708423  0.58641101    -0.08200
C791        C  0.83267214  0.66465134  0.62438004     0.05330
C792        C  0.87922761  0.67590145  0.63481936    -0.03220
Br793      Br  0.89200705  0.71174372  0.68728321    -0.02920
H794        H  0.95334195  0.66130511  0.62067511     0.09240
H795        H  0.78983345  0.62864197  0.57801685     0.07260
Br796      Br  0.85323693  0.57628505  0.51179346    -0.03350
C797        C  0.09254929  0.60024885  0.67072088    -0.09980
C798        C  0.09906002  0.60594912  0.62436639     0.06220
C799        C  0.13238099  0.63901140  0.60785593    -0.03750
C800        C  0.15936659  0.66391139  0.63740812    -0.08200
C801        C  0.15327960  0.65721763  0.68344702     0.05330
C802        C  0.11866183  0.62580368  0.70013569    -0.03220
Br803      Br  0.10348503  0.61779120  0.76268995    -0.02920
H804        H  0.06661747  0.57578360  0.68459544     0.09240
H805        H  0.18599944  0.68805353  0.62418884     0.07260
Br806      Br  0.14156531  0.65401349  0.54635551    -0.03350
C807        C  0.90065401  0.35480579  0.61776017    -0.09980
C808        C  0.89408265  0.39964718  0.60095780     0.06220
C809        C  0.85159411  0.42422177  0.61370529    -0.03750
C810        C  0.81867705  0.40622415  0.64513172    -0.08200
C811        C  0.82491518  0.36201152  0.66266665     0.05330
C812        C  0.86582055  0.33538613  0.64780797    -0.03220
Br813      Br  0.87843108  0.27514904  0.67121848    -0.02920
H814        H  0.93379406  0.33613424  0.60961499     0.09240
H815        H  0.78788794  0.42737640  0.65621794     0.07260
Br816      Br  0.83816492  0.48497766  0.59178199    -0.03350
C817        C  0.12697180  0.67203722  0.34599406    -0.09980
C818        C  0.17377460  0.66437861  0.35706599     0.06220
C819        C  0.18182489  0.64697473  0.39915701    -0.03750
C820        C  0.14321753  0.63343530  0.42770076    -0.08200
C821        C  0.09631961  0.63787772  0.41539285     0.05330
C822        C  0.08837201  0.65949277  0.37497464    -0.03220
Br823      Br  0.02541655  0.66959775  0.35660839    -0.02920
H824        H  0.12044228  0.68626826  0.31399501     0.09240
H825        H  0.15024643  0.61487001  0.45738328     0.07260
Br826      Br  0.24484424  0.63504463  0.41655678    -0.03350
C827        C  0.84611730  0.40851818  0.34209346    -0.09980
C828        C  0.84217241  0.36097462  0.35276147     0.06220
C829        C  0.86375980  0.34480603  0.39037730    -0.03750
C830        C  0.88928467  0.37615164  0.41584571    -0.08200
C831        C  0.89378642  0.42326089  0.40415887     0.05330
C832        C  0.87137505  0.43953502  0.36737739    -0.03220
Br833      Br  0.87238730  0.50422848  0.35114060    -0.02920
H834        H  0.82937651  0.42191013  0.31370659     0.09240
H835        H  0.90659101  0.36350729  0.44422444     0.07260
Br836      Br  0.85831063  0.28154194  0.40983167    -0.03350
C837        C  0.45183932  0.63027966  0.37506122    -0.09980
C838        C  0.44087213  0.58839413  0.39684373     0.06220
C839        C  0.39862712  0.56507486  0.38741792    -0.03750
C840        C  0.36758720  0.58481244  0.35821113    -0.08200
C841        C  0.37764933  0.62791624  0.33770379     0.05330
C842        C  0.42138351  0.64979808  0.34560559    -0.03220
Br843      Br  0.44319093  0.70574889  0.31661690    -0.02920
H844        H  0.48450659  0.64832600  0.38131998     0.09240
H845        H  0.33451411  0.56712583  0.35288512     0.07260
Br846      Br  0.37962253  0.50848021  0.41639133    -0.03350
C847        C  0.61010134  0.41481136  0.60539311    -0.09980
C848        C  0.56101129  0.41335429  0.61623038     0.06220
C849        C  0.54408580  0.38833157  0.65392947    -0.03750
C850        C  0.57625777  0.36738220  0.68118052    -0.08200
C851        C  0.62545140  0.36903035  0.67028067     0.05330
C852        C  0.64203421  0.39229682  0.63151162    -0.03220
Br853      Br  0.70777370  0.39203127  0.61120695    -0.02920
H854        H  0.62357073  0.43192591  0.57541383     0.09240
H855        H  0.56282303  0.34936816  0.71064066     0.07260
Br856      Br  0.47738558  0.38090568  0.66879207    -0.03350
C857        C  0.32985883  0.40903044  0.67544505    -0.09980
C858        C  0.30412055  0.37221282  0.65745754     0.06220
C859        C  0.30039984  0.36902630  0.61115751    -0.03750
C860        C  0.32921276  0.39668833  0.58332796    -0.08200
C861        C  0.36140415  0.42804756  0.60100833     0.05330
C862        C  0.35823892  0.43754215  0.64746500    -0.03220
Br863      Br  0.39562456  0.48431011  0.67545148    -0.02920
H864        H  0.33166136  0.41272329  0.71114363     0.09240
H865        H  0.32931546  0.39078965  0.54766870     0.07260
Br866      Br  0.25986475  0.32446523  0.58394926    -0.03350
C867        C  0.67682352  0.61162196  0.43577546    -0.09980
C868        C  0.64003900  0.58934981  0.41481582     0.06220
C869        C  0.63915176  0.59084048  0.36825965    -0.03750
C870        C  0.67216355  0.61839500  0.34401662    -0.08200
C871        C  0.70606434  0.64467182  0.36567291     0.05330
C872        C  0.71005885  0.63875146  0.41161671    -0.03220
Br873      Br  0.75868816  0.66839920  0.44368395    -0.02920
H874        H  0.67811880  0.61000137  0.47154527     0.09240
H875        H  0.66844774  0.62257058  0.30885666     0.07260
Br876      Br  0.58952298  0.56175659  0.33723792    -0.03350
C877        C  0.37342802  0.60903175  0.61441689    -0.09980
C878        C  0.42120058  0.62024963  0.61826393     0.06220
C879        C  0.43324917  0.65503326  0.64928494    -0.03750
C880        C  0.39723709  0.67804109  0.67623311    -0.08200
C881        C  0.34934477  0.66647347  0.67249069     0.05330
C882        C  0.33762506  0.63159494  0.64137868    -0.03220
Br883      Br  0.27319201  0.61327651  0.63461137    -0.02920
H884        H  0.36395260  0.58253065  0.59029918     0.09240
H885        H  0.40664872  0.70397504  0.70087558     0.07260
Br886      Br  0.49823734  0.67092742  0.65652495    -0.03350
C887        C  0.57435424  0.33882876  0.38730315    -0.09980
C888        C  0.58732200  0.38156824  0.40706843     0.06220
C889        C  0.63554151  0.39442280  0.40470232    -0.03750
C890        C  0.66939490  0.36607360  0.38094414    -0.08200
C891        C  0.65622458  0.32470928  0.35925469     0.05330
C892        C  0.60841866  0.31073467  0.36282591    -0.03220
Br893      Br  0.58849100  0.25434440  0.33402688    -0.02920
H894        H  0.53759907  0.32775398  0.39025737     0.09240
H895        H  0.70607143  0.37747661  0.37775458     0.07260
Br896      Br  0.65767531  0.44943444  0.43423628    -0.03350
loop_ 
_geom_bond_atom_site_label_1 
_geom_bond_atom_site_label_2 
_geom_bond_distance 
_geom_bond_site_symmetry_2 
_ccdc_geom_bond_type 
O1           Ni7   1.924       .  S
O1           C22   1.272       .  A
O2          Ni25   1.901       .  S
O2           C11   1.268       .  A
O3           Ni7   1.894       .  S
O3          Ni25   1.896       .  S
O3          Ni19   1.909       .  S
O3           H26   0.965       .  S
C4           O21   1.276       .  A
C4           O13   1.276       .  A
C4          C868   1.467       .  S
O5          Ni24   1.933       .  S
O5           C11   1.273       .  A
O6          Ni24   1.913       .  S
O6            C8   1.271       .  A
Ni7          O10   1.915       .  S
Ni7          O12   1.911       .  S
C8           O18   1.280       .  A
C8          C838   1.493       .  S
O9          Ni25   1.910       .  S
O9           C15   1.271       .  A
O10          C15   1.277       .  A
C11         C878   1.465       .  S
O12          C14   1.269       .  A
O13         Ni24   1.917       .  S
C14          O20   1.280       .  A
C14         C848   1.483       .  S
C15         C861   1.474       .  S
H16          O17   0.966       .  S
O17         Ni25   1.899       .  S
O17         Ni19   1.900       .  S
O17         Ni24   1.897       .  S
O18         Ni19   1.955       .  S
Ni19         O23   1.913       .  S
Ni19         O21   1.919       .  S
O20         Ni25   1.951       .  S
C22          O23   1.275       .  A
C22         C888   1.471       .  S
O27         Ni33   1.898   1_455  S
O27          C48   1.264       .  A
O28         Ni51   1.930       .  S
O28          C37   1.273       .  A
O29         Ni33   1.912       .  S
O29         Ni51   1.929       .  S
O29         Ni45   1.939   1_655  S
O29          H52   0.964       .  S
C30          O47   1.271       .  A
C30          O39   1.268       .  A
C30         C798   1.478       .  S
O31         Ni50   1.897       .  S
O31          C37   1.264       .  A
O32         Ni50   1.892       .  S
O32          C34   1.265       .  A
Ni33         O36   1.907       .  S
Ni33         O38   1.871   1_655  S
C34          O44   1.275       .  A
C34         C788   1.458       .  S
O35         Ni51   1.895       .  S
O35          C41   1.260       .  A
O36          C41   1.263       .  A
C37         C808   1.475       .  S
O38          C40   1.267       .  A
O39         Ni50   1.908   1_455  S
C40          O46   1.288       .  A
C40         C778   1.466       .  S
C41         C831   1.461       .  S
H42          O43   0.966       .  S
O43         Ni51   1.906   1_455  S
O43         Ni45   1.912       .  S
O43         Ni50   1.904   1_455  S
O44         Ni45   1.949   1_655  S
Ni45         O49   1.919       .  S
Ni45         O47   1.916       .  S
O46         Ni51   1.965   1_455  S
C48          O49   1.270       .  A
C48         C821   1.477       .  S
O53         Ni59   1.901       .  S
O53          C74   1.264       .  A
O54         Ni77   1.922       .  S
O54          C63   1.270       .  A
O55         Ni59   1.890       .  S
O55         Ni77   1.901   1_554  S
O55         Ni71   1.913       .  S
O55          H78   0.966       .  S
C56          O73   1.278       .  A
C56          O65   1.273       .  A
C56         C748   1.461       .  S
O57         Ni76   1.910   1_556  S
O57          C63   1.266       .  A
O58         Ni76   1.895       .  S
O58          C60   1.269       .  A
Ni59         O62   1.900       .  S
Ni59         O64   1.906   1_554  S
C60          O70   1.272       .  A
C60         C731   1.486       .  S
O61         Ni77   1.913       .  S
O61          C67   1.278       .  A
O62          C67   1.272   1_554  A
C63         C768   1.470       .  S
O64          C66   1.267       .  A
O65         Ni76   1.901       .  S
C66          O72   1.272       .  A
C66         C761   1.483       .  S
C67         C721   1.461       .  S
H68          O69   0.966   1_556  S
O69         Ni77   1.908   1_554  S
O69         Ni71   1.909       .  S
O69         Ni76   1.890       .  S
O70         Ni71   1.943       .  S
Ni71         O75   1.923       .  S
Ni71         O73   1.916       .  S
O72         Ni77   1.932       .  S
C74          O75   1.270       .  A
C74         C738   1.467       .  S
O79         Ni85   1.915       .  S
O79         C100   1.269       .  A
O80        Ni103   1.930   1_565  S
O80          C89   1.276       .  A
O81         Ni85   1.887       .  S
O81        Ni103   1.903       .  S
O81         Ni97   1.904   1_545  S
O81         H104   0.966       .  S
C82          O99   1.277       .  A
C82          O91   1.275       .  A
C82         C708   1.467       .  S
O83        Ni102   1.926       .  S
O83          C89   1.272       .  A
O84        Ni102   1.909       .  S
O84          C86   1.271       .  A
Ni85         O88   1.907       .  S
Ni85         O90   1.900       .  S
C86          O96   1.276       .  A
C86         C668   1.491       .  S
O87        Ni103   1.920       .  S
O87          C93   1.279       .  A
O88          C93   1.276       .  A
C89         C688   1.498       .  S
O90          C92   1.268       .  A
O91        Ni102   1.917       .  S
C92          O98   1.282       .  A
C92         C698   1.492       .  S
C93         C678   1.461       .  S
H94          O95   0.966       .  S
O95        Ni103   1.912   1_565  S
O95         Ni97   1.910       .  S
O95        Ni102   1.898       .  S
O96         Ni97   1.947       .  S
Ni97        O101   1.933   1_565  S
Ni97         O99   1.912       .  S
O98        Ni103   1.967       .  S
C100        O101   1.274       .  A
C100        C658   1.483       .  S
O105       Ni111   1.918       .  S
O105        C126   1.268       .  A
O106       Ni129   1.922       .  S
O106        C115   1.275       .  A
O107       Ni111   1.889       .  S
O107       Ni129   1.911   1_456  S
O107       Ni123   1.923   1_556  S
O107        H130   0.966       .  S
C108        O125   1.280       .  A
C108        O117   1.276       .  A
C108        C608   1.476       .  S
O109       Ni128   1.908       .  S
O109        C115   1.266       .  A
O110       Ni128   1.903   1_455  S
O110        C112   1.267       .  A
Ni111       O114   1.922   1_455  S
Ni111       O116   1.896   1_455  S
C112        O122   1.280       .  A
C112        C598   1.491       .  S
O113       Ni129   1.941   1_556  S
O113        C119   1.282       .  A
O114        C119   1.274       .  A
C115        C628   1.465       .  S
O116        C118   1.271       .  A
O117       Ni128   1.918   1_455  S
C118        O124   1.283       .  A
C118        C651   1.502       .  S
C119        C638   1.502       .  S
H120        O121   0.966       .  S
O121       Ni129   1.920       .  S
O121       Ni123   1.900   1_655  S
O121       Ni128   1.896       .  S
O122       Ni123   1.960       .  S
Ni123       O127   1.927   1_554  S
Ni123       O125   1.920       .  S
O124       Ni129   1.968   1_556  S
C126        O127   1.275       .  A
C126        C621   1.479       .  S
O131       Ni137   1.904       .  S
O131        C152   1.268       .  A
O132       Ni155   1.897   1_655  S
O132        C141   1.268       .  A
O133       Ni137   1.895   1_565  S
O133       Ni155   1.902       .  S
O133       Ni149   1.917   1_565  S
O133        H156   0.966       .  S
C134        O151   1.279       .  A
C134        O143   1.276       .  A
C134        C571   1.484       .  S
O135       Ni154   1.918   1_565  S
O135        C141   1.270       .  A
O136       Ni154   1.905   1_565  S
O136        C138   1.268       .  A
Ni137       O140   1.909   1_545  S
Ni137       O142   1.904       .  S
C138        O148   1.275       .  A
C138        C588   1.476       .  S
O139       Ni155   1.918       .  S
O139        C145   1.277       .  A
O140        C145   1.270       .  A
C141        C561   1.460       .  S
O142        C144   1.269       .  A
O143       Ni154   1.921       .  S
C144        O150   1.272       .  A
C144        C538   1.475       .  S
C145        C581   1.478       .  S
H146        O147   0.966       .  S
O147       Ni155   1.912   1_645  S
O147       Ni149   1.881   1_655  S
O147       Ni154   1.888       .  S
O148       Ni149   1.939   1_665  S
Ni149       O153   1.895       .  S
Ni149       O151   1.921   1_455  S
O150       Ni155   1.939   1_545  S
C152        O153   1.264       .  A
C152        C548   1.447       .  S
O157       Ni163   1.922       .  S
O157        C178   1.268       .  A
O158       Ni181   1.926       .  S
O158        C167   1.277       .  A
O159       Ni163   1.901       .  S
O159       Ni181   1.905   1_564  S
O159       Ni175   1.871       .  S
O159        H182   0.966       .  S
C160        O177   1.255       .  A
C160        O169   1.268       .  A
C160        C491   1.436       .  S
O161       Ni180   1.910   1_556  S
O161        C167   1.265       .  A
O162       Ni180   1.876       .  S
O162        C164   1.258       .  A
Ni163       O166   1.896   1_554  S
Ni163       O168   1.904   1_554  S
C164        O174   1.289       .  A
C164        C478   1.497       .  S
O165       Ni181   1.909   1_565  S
O165        C171   1.277       .  A
O166        C171   1.271       .  A
C167        C518   1.493       .  S
O168        C170   1.268       .  A
O169       Ni180   1.925       .  S
C170        O176   1.277       .  A
C170        C528   1.493       .  S
C171        C511   1.468       .  S
H172        O173   0.963   1_556  S
O173       Ni181   1.917   1_554  S
O173       Ni175   1.923   1_545  S
O173       Ni180   1.899       .  S
O174       Ni175   1.999   1_545  S
Ni175       O179   1.922       .  S
Ni175       O177   1.870   1_565  S
O176       Ni181   1.949   1_565  S
C178        O179   1.273       .  A
C178        C501   1.491       .  S
O183       Ni189   1.912   1_655  S
O183        C204   1.268       .  A
O184       Ni207   1.912   1_556  S
O184        C193   1.270       .  A
O185       Ni189   1.906       .  S
O185       Ni207   1.910   1_545  S
O185       Ni201   1.929   1_455  S
O185        H208   0.966       .  S
C186        O203   1.272       .  A
C186        O195   1.272       .  A
C186        C458   1.471       .  S
O187       Ni206   1.912   1_455  S
O187        C193   1.265       .  A
O188       Ni206   1.888   1_445  S
O188        C190   1.267       .  A
Ni189       O192   1.920   1_545  S
Ni189       O194   1.882   1_445  S
C190        O200   1.280       .  A
C190        C438   1.481       .  S
O191       Ni207   1.911       .  S
O191        C197   1.268       .  A
O192        C197   1.271       .  A
C193        C451   1.474       .  S
O194        C196   1.266       .  A
O195       Ni206   1.911   1_545  S
C196        O202   1.284       .  A
C196        C471   1.482       .  S
C197        C431   1.468       .  S
H198        O199   0.966       .  S
O199       Ni207   1.923   1_656  S
O199       Ni201   1.912   1_566  S
O199       Ni206   1.914       .  S
O200       Ni201   1.946   1_456  S
Ni201       O205   1.920       .  S
Ni201       O203   1.919   1_554  S
O202       Ni207   1.961   1_655  S
C204        O205   1.272       .  A
C204        C418   1.483       .  S
O209       Ni215   1.931       .  S
O209        C230   1.272       .  A
O210       Ni233   1.899       .  S
O210        C219   1.267       .  A
O211       Ni215   1.896       .  S
O211       Ni233   1.892       .  S
O211       Ni227   1.911       .  S
O211        H234   0.966       .  S
C212        O229   1.275       .  A
C212        O221   1.275       .  A
C212        C591   1.473       .  S
O213       Ni232   1.929       .  S
O213        C219   1.273       .  A
O214       Ni232   1.902       .  S
O214        C216   1.269       .  A
Ni215       O218   1.923       .  S
Ni215       O220   1.902       .  S
C216        O226   1.279       .  A
C216        C671   1.483       .  S
O217       Ni233   1.918       .  S
O217        C223   1.274       .  A
O218        C223   1.279       .  A
C219        C871   1.477       .  S
O220        C222   1.269       .  A
O221       Ni232   1.925       .  S
C222        O228   1.274       .  A
C222        C631   1.483       .  S
C223        C741   1.478       .  S
H224        O225   0.966       .  S
O225       Ni233   1.911       .  S
O225       Ni227   1.907       .  S
O225       Ni232   1.898       .  S
O226       Ni227   1.957       .  S
Ni227       O231   1.906       .  S
Ni227       O229   1.920       .  S
O228       Ni233   1.929       .  S
C230        O231   1.274       .  A
C230        C468   1.485       .  S
O235       Ni241   1.907       .  S
O235        C256   1.268       .  A
O236       Ni259   1.901       .  S
O236        C245   1.265       .  A
O237       Ni241   1.909       .  S
O237       Ni259   1.911       .  S
O237       Ni253   1.937       .  S
O237        H260   0.966       .  S
C238        O255   1.273       .  A
C238        O247   1.271       .  A
C238        C461   1.466       .  S
O239       Ni258   1.915       .  S
O239        C245   1.266       .  A
O240       Ni258   1.882       .  S
O240        C242   1.267       .  A
Ni241       O244   1.924       .  S
Ni241       O246   1.919       .  S
C242        O252   1.290       .  A
C242        C521   1.488       .  S
O243       Ni259   1.936       .  S
O243        C249   1.275       .  A
O244        C249   1.271       .  A
C245        C681   1.460       .  S
O246        C248   1.273       .  A
O247       Ni258   1.910       .  S
C248        O254   1.269       .  A
C248        C811   1.483       .  S
C249        C851   1.486       .  S
H250        O251   0.965       .  S
O251       Ni259   1.921       .  S
O251       Ni253   1.914       .  S
O251       Ni258   1.896       .  S
O252       Ni253   1.974       .  S
Ni253       O257   1.944       .  S
Ni253       O255   1.921       .  S
O254       Ni259   1.925       .  S
C256        O257   1.281       .  A
C256        C648   1.509       .  S
O261       Ni267   1.938       .  S
O261        C282   1.277       .  A
O262       Ni285   1.891       .  S
O262        C271   1.264       .  A
O263       Ni267   1.907       .  S
O263       Ni285   1.896       .  S
O263       Ni279   1.907       .  S
O263        H286   0.966       .  S
C264        O281   1.272       .  A
C264        O273   1.272       .  A
C264        C801   1.467       .  S
O265       Ni284   1.910       .  S
O265        C271   1.267       .  A
O266       Ni284   1.900       .  S
O266        C268   1.267       .  A
Ni267       O270   1.938       .  S
Ni267       O272   1.920       .  S
C268        O278   1.275       .  A
C268        C881   1.468       .  S
O269       Ni285   1.919       .  S
O269        C275   1.277       .  A
O270        C275   1.280       .  A
C271        C718   1.454       .  S
O272        C274   1.270       .  A
O273       Ni284   1.907       .  S
C274        O280   1.268       .  A
C274        C448   1.479       .  S
C275        C531   1.492       .  S
H276        O277   0.964       .  S
O277       Ni285   1.907       .  S
O277       Ni279   1.894       .  S
O277       Ni284   1.899       .  S
O278       Ni279   1.938       .  S
Ni279       O283   1.896       .  S
Ni279       O281   1.906       .  S
O280       Ni285   1.925       .  S
C282        O283   1.268       .  A
C282        C578   1.470       .  S
O287       Ni293   1.913       .  S
O287        C308   1.270       .  A
O288       Ni311   1.916       .  S
O288        C297   1.277       .  A
O289       Ni293   1.881       .  S
O289       Ni311   1.894       .  S
O289       Ni305   1.904       .  S
O289        H312   0.966       .  S
C290        O307   1.274       .  A
C290        O299   1.277       .  A
C290        C771   1.478       .  S
O291       Ni310   1.917       .  S
O291        C297   1.272       .  A
O292       Ni310   1.912       .  S
O292        C294   1.270       .  A
Ni293       O296   1.911       .  S
Ni293       O298   1.902       .  S
C294        O304   1.276       .  A
C294        C618   1.494       .  S
O295       Ni311   1.942       .  S
O295        C301   1.285       .  A
O296        C301   1.277       .  A
C297        C441   1.481       .  S
O298        C300   1.268       .  A
O299       Ni310   1.921       .  S
C300        O306   1.280       .  A
C300        C701   1.490       .  S
C301        C541   1.486       .  S
H302        O303   0.966       .  S
O303       Ni311   1.928       .  S
O303       Ni305   1.897       .  S
O303       Ni310   1.891       .  S
O304       Ni305   1.937       .  S
Ni305       O309   1.905       .  S
Ni305       O307   1.924       .  S
O306       Ni311   1.966       .  S
C308        O309   1.267       .  A
C308        C858   1.465       .  S
O313       Ni319   1.895       .  S
O313        C334   1.263       .  A
O314       Ni337   1.912       .  S
O314        C323   1.271       .  A
O315       Ni319   1.914       .  S
O315       Ni337   1.922       .  S
O315       Ni331   1.936       .  S
O315        H338   0.966       .  S
C316        O333   1.270       .  A
C316        O325   1.280       .  A
C316        C841   1.504       .  S
O317       Ni336   1.946       .  S
O317        C323   1.277       .  A
O318       Ni336   1.911       .  S
O318        C320   1.269       .  A
Ni319       O322   1.916       .  S
Ni319       O324   1.880       .  S
C320        O330   1.271       .  A
C320        C818   1.473       .  S
O321       Ni337   1.916       .  S
O321        C327   1.266       .  A
O322        C327   1.264       .  A
C323        C601   1.494       .  S
O324        C326   1.266       .  A
O325       Ni336   1.961       .  S
C326        O332   1.286       .  A
C326        C498   1.478       .  S
C327        C428   1.470       .  S
H328        O329   0.966       .  S
O329       Ni337   1.914       .  S
O329       Ni331   1.909       .  S
O329       Ni336   1.919       .  S
O330       Ni331   1.936       .  S
Ni331       O335   1.910       .  S
Ni331       O333   1.907       .  S
O332       Ni337   1.976       .  S
C334        O335   1.265       .  A
C334        C711   1.462       .  S
O339       Ni345   1.890       .  S
O339        C360   1.262       .  A
O340       Ni363   1.903       .  S
O340        C349   1.266       .  A
O341       Ni345   1.911       .  S
O341       Ni363   1.914       .  S
O341       Ni357   1.927       .  S
O341        H364   0.966       .  S
C342        O359   1.272       .  A
C342        O351   1.275       .  A
C342        C481   1.491       .  S
O343       Ni362   1.928       .  S
O343        C349   1.272       .  A
O344       Ni362   1.907       .  S
O344        C346   1.269       .  A
Ni345       O348   1.910       .  S
Ni345       O350   1.888       .  S
C346        O356   1.273       .  A
C346        C421   1.483       .  S
O347       Ni363   1.912       .  S
O347        C353   1.266       .  A
O348        C353   1.265       .  A
C349        C568   1.476       .  S
O350        C352   1.265       .  A
O351       Ni362   1.944       .  S
C352        O358   1.283       .  A
C352        C891   1.464       .  S
C353        C828   1.474       .  S
H354        O355   0.966       .  S
O355       Ni363   1.910       .  S
O355       Ni357   1.905       .  S
O355       Ni362   1.923       .  S
O356       Ni357   1.942       .  S
Ni357       O361   1.906       .  S
Ni357       O359   1.900       .  S
O358       Ni363   1.966       .  S
C360        O361   1.267       .  A
C360        C751   1.462       .  S
O365       Ni371   1.913       .  S
O365        C386   1.267       .  A
O366       Ni389   1.882       .  S
O366        C375   1.259       .  A
O367       Ni371   1.918       .  S
O367       Ni389   1.905       .  S
O367       Ni383   1.925       .  S
O367        H390   0.966       .  S
C368        O385   1.276       .  A
C368        O377   1.271       .  A
C368        C611   1.477       .  S
O369       Ni388   1.900       .  S
O369        C375   1.265       .  A
O370       Ni388   1.886       .  S
O370        C372   1.262       .  A
Ni371       O374   1.921       .  S
Ni371       O376   1.916       .  S
C372        O382   1.284       .  A
C372        C728   1.485       .  S
O373       Ni389   1.931       .  S
O373        C379   1.274       .  A
O374        C379   1.275       .  A
C375        C488   1.446       .  S
O376        C378   1.268       .  A
O377       Ni388   1.905       .  S
C378        O384   1.259       .  A
C378        C551   1.467       .  S
C379        C661   1.487       .  S
H380        O381   0.966       .  S
O381       Ni389   1.906       .  S
O381       Ni383   1.905       .  S
O381       Ni388   1.878       .  S
O382       Ni383   1.980       .  S
Ni383       O387   1.910       .  S
Ni383       O385   1.928       .  S
O384       Ni389   1.888       .  S
C386        O387   1.272       .  A
C386        C781   1.464       .  S
O391       Ni397   1.939       .  S
O391        C412   1.276       .  A
O392       Ni415   1.914       .  S
O392        C401   1.269       .  A
O393       Ni397   1.905       .  S
O393       Ni415   1.904       .  S
O393       Ni409   1.919       .  S
O393        H416   0.966       .  S
C394        O411   1.281       .  A
C394        O403   1.275       .  A
C394        C558   1.471       .  S
O395       Ni414   1.883       .  S
O395        C401   1.258       .  A
O396       Ni414   1.898       .  S
O396        C398   1.264       .  A
Ni397       O400   1.940       .  S
Ni397       O402   1.914       .  S
C398        O408   1.276       .  A
C398        C691   1.490       .  S
O399       Ni415   1.909       .  S
O399        C405   1.277       .  A
O400        C405   1.281       .  A
C401        C508   1.463       .  S
O402        C404   1.271       .  A
O403       Ni414   1.899       .  S
C404        O410   1.272       .  A
C404        C641   1.491       .  S
C405        C758   1.483       .  S
H406        O407   0.966       .  S
O407       Ni415   1.906       .  S
O407       Ni409   1.869       .  S
O407       Ni414   1.879       .  S
O408       Ni409   1.948       .  S
Ni409       O413   1.887       .  S
Ni409       O411   1.922       .  S
O410       Ni415   1.934       .  S
C412        O413   1.263       .  A
C412        C791   1.461       .  S
C417        C418   1.408       .  A
C417        C422   1.409       .  A
C417        H424   1.082       .  S
C418        C419   1.411       .  A
C419        C420   1.397       .  A
C419       Br426   1.921       .  S
C420        C421   1.402       .  A
C420        H425   1.083       .  S
C421        C422   1.410       .  A
C422       Br423   1.918       .  S
C427        C428   1.407       .  A
C427        C432   1.398       .  A
C427        H434   1.084       .  S
C428        C429   1.405       .  A
C429        C430   1.399       .  A
C429       Br436   1.918       .  S
C430        C431   1.405       .  A
C430        H435   1.084       .  S
C431        C432   1.404       .  A
C432       Br433   1.916       .  S
C437        C438   1.411       .  A
C437        C442   1.398       .  A
C437        H444   1.083       .  S
C438        C439   1.406       .  A
C439        C440   1.399       .  A
C439       Br446   1.920       .  S
C440        C441   1.412       .  A
C440        H445   1.084       .  S
C441        C442   1.405       .  A
C442       Br443   1.919       .  S
C447        C448   1.399       .  A
C447        C452   1.398       .  A
C447        H454   1.084       .  S
C448        C449   1.413       .  A
C449        C450   1.406       .  A
C449       Br456   1.916       .  S
C450        C451   1.402       .  A
C450        H455   1.083       .  S
C451        C452   1.412       .  A
C452       Br453   1.919       .  S
C457        C458   1.405       .  A
C457        C462   1.395       .  A
C457        H464   1.084       .  S
C458        C459   1.406       .  A
C459        C460   1.403       .  A
C459       Br466   1.916       .  S
C460        C461   1.407       .  A
C460        H465   1.084       .  S
C461        C462   1.402       .  A
C462       Br463   1.918       .  S
C467        C468   1.400       .  A
C467        C472   1.393       .  A
C467        H474   1.082       .  S
C468        C469   1.418       .  A
C469        C470   1.406       .  A
C469       Br476   1.919       .  S
C470        C471   1.403       .  A
C470        H475   1.083       .  S
C471        C472   1.416       .  A
C472       Br473   1.925       .  S
C477        C478   1.409       .  A
C477        C482   1.416       .  A
C477        H484   1.083       .  S
C478        C479   1.425       .  A
C479        C480   1.386       .  A
C479       Br486   1.933       .  S
C480        C481   1.396       .  A
C480        H485   1.083       .  S
C481        C482   1.417       .  A
C482       Br483   1.917       .  S
C487        C488   1.400       .  A
C487        C492   1.387       .  A
C487        H494   1.084       .  S
C488        C489   1.408       .  A
C489        C490   1.387       .  A
C489       Br496   1.922       .  S
C490        C491   1.394       .  A
C490        H495   1.084       .  S
C491        C492   1.403       .  A
C492       Br493   1.921       .  S
C497        C498   1.403       .  A
C497        C502   1.390       .  A
C497        H504   1.085       .  S
C498        C499   1.404       .  A
C499        C500   1.408       .  A
C499       Br506   1.916       .  S
C500        C501   1.417       .  A
C500        H505   1.083       .  S
C501        C502   1.409       .  A
C502       Br503   1.908       .  S
C507        C508   1.398       .  A
C507        C512   1.391       .  A
C507        H514   1.084       .  S
C508        C509   1.417       .  A
C509        C510   1.387       .  A
C509       Br516   1.927       .  S
C510        C511   1.399       .  A
C510        H515   1.084       .  S
C511        C512   1.415       .  A
C512       Br513   1.922   1_556  S
C517        C518   1.400       .  A
C517        C522   1.395       .  A
C517        H524   1.084       .  S
C518        C519   1.424       .  A
C519        C520   1.410       .  A
C519       Br526   1.921       .  S
C520        C521   1.402       .  A
C520        H525   1.083       .  S
C521        C522   1.419       .  A
C522       Br523   1.926       .  S
C527        C528   1.407       .  A
C527        C532   1.401       .  A
C527        H534   1.084       .  S
C528        C529   1.415       .  A
C529        C530   1.406       .  A
C529       Br536   1.915   1_565  S
C530        C531   1.406       .  A
C530        H535   1.083       .  S
C531        C532   1.413       .  A
C532       Br533   1.922       .  S
C537        C538   1.407       .  A
C537        C542   1.407       .  A
C537        H544   1.084       .  S
C538        C539   1.404       .  A
C539        C540   1.394       .  A
C539       Br546   1.922       .  S
C540        C541   1.409       .  A
C540        H545   1.084       .  S
C541        C542   1.411       .  A
C542       Br543   1.915       .  S
C547        C548   1.400       .  A
C547        C552   1.391       .  A
C547        H554   1.085       .  S
C548        C549   1.400       .  A
C549        C550   1.394       .  A
C549       Br556   1.918       .  S
C550        C551   1.408       .  A
C550        H555   1.084       .  S
C551        C552   1.408       .  A
C552       Br553   1.917       .  S
C557        C558   1.403       .  A
C557        C562   1.391       .  A
C557        H564   1.084       .  S
C558        C559   1.417       .  A
C559        C560   1.394       .  A
C559       Br566   1.924       .  S
C560        C561   1.397       .  A
C560        H565   1.084       .  S
C561        C562   1.408       .  A
C562       Br563   1.922       .  S
C567        C568   1.404       .  A
C567        C572   1.405       .  A
C567        H574   1.083       .  S
C568        C569   1.410       .  A
C569        C570   1.390       .  A
C569       Br576   1.923       .  S
C570        C571   1.405       .  A
C570        H575   1.084       .  S
C571        C572   1.415       .  A
C572       Br573   1.919       .  S
C577        C578   1.396       .  A
C577        C582   1.393       .  A
C577        H584   1.084       .  S
C578        C579   1.410       .  A
C579        C580   1.399       .  A
C579       Br586   1.910       .  S
C580        C581   1.402       .  A
C580        H585   1.084       .  S
C581        C582   1.421       .  A
C582       Br583   1.926       .  S
C587        C588   1.406       .  A
C587        C592   1.398       .  A
C587        H594   1.084       .  S
C588        C589   1.407       .  A
C589        C590   1.404       .  A
C589       Br596   1.917       .  S
C590        C591   1.406       .  A
C590        H595   1.083       .  S
C591        C592   1.405       .  A
C592       Br593   1.919       .  S
C597        C598   1.403       .  A
C597        C602   1.403       .  A
C597        H604   1.075       .  S
C598        C599   1.412       .  A
C599        C600   1.408       .  A
C599       Br606   1.918       .  S
C600        C601   1.408       .  A
C600        H605   1.083       .  S
C601        C602   1.413       .  A
C602       Br603   1.921       .  S
C607        C608   1.412       .  A
C607        C612   1.407       .  A
C607        H614   1.083       .  S
C608        C609   1.408       .  A
C609        C610   1.385       .  A
C609       Br616   1.921       .  S
C610        C611   1.402       .  A
C610        H615   1.079       .  S
C611        C612   1.408       .  A
C612       Br613   1.918       .  S
C617        C618   1.412       .  A
C617        C622   1.400       .  A
C617        H624   1.083       .  S
C618        C619   1.416       .  A
C619        C620   1.403       .  A
C619       Br626   1.921       .  S
C620        C621   1.405       .  A
C620        H625   1.084       .  S
C621        C622   1.405       .  A
C622       Br623   1.917       .  S
C627        C628   1.403       .  A
C627        C632   1.400       .  A
C627        H634   1.084       .  S
C628        C629   1.402       .  A
C629        C630   1.394       .  A
C629       Br636   1.912       .  S
C630        C631   1.409       .  A
C630        H635   1.084       .  S
C631        C632   1.415       .  A
C632       Br633   1.921       .  S
C637        C638   1.407       .  A
C637        C642   1.404       .  A
C637        H644   1.076       .  S
C638        C639   1.422       .  A
C639        C640   1.402       .  A
C639       Br646   1.924       .  S
C640        C641   1.404       .  A
C640        H645   1.084       .  S
C641        C642   1.412       .  A
C642       Br643   1.921       .  S
C647        C648   1.417       .  A
C647        C652   1.426       .  A
C647        H654   1.083       .  S
C648        C649   1.423       .  A
C649        C650   1.386       .  A
C649       Br656   1.933       .  S
C650        C651   1.400       .  A
C650        H655   1.085       .  S
C651        C652   1.416       .  A
C652       Br653   1.914   1_556  S
C657        C658   1.403       .  A
C657        C662   1.408       .  A
C657        H664   1.084       .  S
C658        C659   1.412       .  A
C659        C660   1.398       .  A
C659       Br666   1.922       .  S
C660        C661   1.402       .  A
C660        H665   1.084       .  S
C661        C662   1.417       .  A
C662       Br663   1.920       .  S
C667        C668   1.405       .  A
C667        C672   1.397       .  A
C667        H674   1.084       .  S
C668        C669   1.416       .  A
C669        C670   1.411       .  A
C669       Br676   1.917   1_565  S
C670        C671   1.406       .  A
C670        H675   1.082       .  S
C671        C672   1.409       .  A
C672       Br673   1.923       .  S
C677        C678   1.399       .  A
C677        C682   1.388       .  A
C677        H684   1.084       .  S
C678        C679   1.407       .  A
C679        C680   1.401       .  A
C679       Br686   1.918       .  S
C680        C681   1.404       .  A
C680        H685   1.084       .  S
C681        C682   1.406       .  A
C682       Br683   1.917       .  S
C687        C688   1.413       .  A
C687        C692   1.403       .  A
C687        H694   1.083       .  S
C688        C689   1.412       .  A
C689        C690   1.405       .  A
C689       Br696   1.920       .  S
C690        C691   1.410       .  A
C690        H695   1.084       .  S
C691        C692   1.408       .  A
C692       Br693   1.921       .  S
C697        C698   1.406       .  A
C697        C702   1.400       .  A
C697        H704   1.084       .  S
C698        C699   1.412       .  A
C699        C700   1.415       .  A
C699       Br706   1.916       .  S
C700        C701   1.409       .  A
C700        H705   1.083       .  S
C701        C702   1.410       .  A
C702       Br703   1.921       .  S
C707        C708   1.409       .  A
C707        C712   1.404       .  A
C707        H714   1.083       .  S
C708        C709   1.408       .  A
C709        C710   1.386       .  A
C709       Br716   1.925       .  S
C710        C711   1.400       .  A
C710        H715   1.085       .  S
C711        C712   1.404       .  A
C712       Br713   1.916       .  S
C717        C718   1.397       .  A
C717        C722   1.389       .  A
C717        H724   1.084       .  S
C718        C719   1.407       .  A
C719        C720   1.391       .  A
C719       Br726   1.921       .  S
C720        C721   1.402       .  A
C720        H725   1.084       .  S
C721        C722   1.414       .  A
C722       Br723   1.925       .  S
C727        C728   1.408       .  A
C727        C732   1.416       .  A
C727        H734   1.083       .  S
C728        C729   1.416       .  A
C729        C730   1.385       .  A
C729       Br736   1.923       .  S
C730        C731   1.397       .  A
C730        H735   1.085       .  S
C731        C732   1.416       .  A
C732       Br733   1.917       .  S
C737        C738   1.397       .  A
C737        C742   1.399       .  A
C737        H744   1.084       .  S
C738        C739   1.410       .  A
C739        C740   1.394       .  A
C739       Br746   1.919       .  S
C740        C741   1.401       .  A
C740        H745   1.084       .  S
C741        C742   1.418       .  A
C742       Br743   1.916       .  S
C747        C748   1.401       .  A
C747        C752   1.389       .  A
C747        H754   1.084       .  S
C748        C749   1.405       .  A
C749        C750   1.396       .  A
C749       Br756   1.920       .  S
C750        C751   1.407       .  A
C750        H755   1.084       .  S
C751        C752   1.407       .  A
C752       Br753   1.918       .  S
C757        C758   1.404       .  A
C757        C762   1.395       .  A
C757        H764   1.084       .  S
C758        C759   1.413       .  A
C759        C760   1.405       .  A
C759       Br766   1.919       .  S
C760        C761   1.407       .  A
C760        H765   1.083       .  S
C761        C762   1.412       .  A
C762       Br763   1.923       .  S
C767        C768   1.399       .  A
C767        C772   1.402       .  A
C767        H774   1.084       .  S
C768        C769   1.409       .  A
C769        C770   1.396       .  A
C769       Br776   1.920       .  S
C770        C771   1.402       .  A
C770        H775   1.084       .  S
C771        C772   1.417       .  A
C772       Br773   1.920       .  S
C777        C778   1.410       .  A
C777        C782   1.398       .  A
C777        H784   1.084       .  S
C778        C779   1.404       .  A
C779        C780   1.397       .  A
C779       Br786   1.920       .  S
C780        C781   1.405       .  A
C780        H785   1.083       .  S
C781        C782   1.401       .  A
C782       Br783   1.918       .  S
C787        C788   1.397       .  A
C787        C792   1.392       .  A
C787        H794   1.084       .  S
C788        C789   1.409       .  A
C789        C790   1.400       .  A
C789       Br796   1.917       .  S
C790        C791   1.400       .  A
C790        H795   1.083       .  S
C791        C792   1.409       .  A
C792       Br793   1.919       .  S
C797        C798   1.410       .  A
C797        C802   1.389       .  A
C797        H804   1.083       .  S
C798        C799   1.410       .  A
C799        C800   1.397       .  A
C799       Br806   1.913       .  S
C800        C801   1.404       .  A
C800        H805   1.084       .  S
C801        C802   1.404       .  A
C802       Br803   1.923       .  S
C807        C808   1.405       .  A
C807        C812   1.413       .  A
C807        H814   1.083       .  S
C808        C809   1.410       .  A
C809        C810   1.388       .  A
C809       Br816   1.918       .  S
C810        C811   1.396       .  A
C810        H815   1.083       .  S
C811        C812   1.417       .  A
C812       Br813   1.917       .  S
C817        C818   1.402       .  A
C817        C822   1.400       .  A
C817        H824   1.084       .  S
C818        C819   1.407       .  A
C819        C820   1.400       .  A
C819       Br826   1.920       .  S
C820        C821   1.405       .  A
C820        H825   1.081       .  S
C821        C822   1.411       .  A
C822       Br823   1.920       .  S
C827        C828   1.406       .  A
C827        C832   1.387       .  A
C827        H834   1.084       .  S
C828        C829   1.412       .  A
C829        C830   1.400       .  A
C829       Br836   1.917       .  S
C830        C831   1.403       .  A
C830        H835   1.084       .  S
C831        C832   1.403       .  A
C832       Br833   1.923       .  S
C837        C838   1.404       .  A
C837        C842   1.402       .  A
C837        H844   1.084       .  S
C838        C839   1.411       .  A
C839        C840   1.411       .  A
C839       Br846   1.917       .  S
C840        C841   1.412       .  A
C840        H845   1.083       .  S
C841        C842   1.418       .  A
C842       Br843   1.923       .  S
C847        C848   1.400       .  A
C847        C852   1.402       .  A
C847        H854   1.084       .  S
C848        C849   1.413       .  A
C849        C850   1.408       .  A
C849       Br856   1.916       .  S
C850        C851   1.404       .  A
C850        H855   1.083       .  S
C851        C852   1.411       .  A
C852       Br853   1.910       .  S
C857        C858   1.401       .  A
C857        C862   1.400       .  A
C857        H864   1.084       .  S
C858        C859   1.408       .  A
C859        C860   1.389       .  A
C859       Br866   1.923       .  S
C860        C861   1.402       .  A
C860        H865   1.084       .  S
C861        C862   1.416       .  A
C862       Br863   1.922       .  S
C867        C868   1.400       .  A
C867        C872   1.395       .  A
C867        H874   1.084       .  S
C868        C869   1.407       .  A
C869        C870   1.399       .  A
C869       Br876   1.920       .  S
C870        C871   1.406       .  A
C870        H875   1.082       .  S
C871        C872   1.412       .  A
C872       Br873   1.922       .  S
C877        C878   1.399       .  A
C877        C882   1.394       .  A
C877        H884   1.084       .  S
C878        C879   1.407       .  A
C879        C880   1.404       .  A
C879       Br886   1.917       .  S
C880        C881   1.404       .  A
C880        H885   1.083       .  S
C881        C882   1.408       .  A
C882       Br883   1.917       .  S
C887        C888   1.406       .  A
C887        C892   1.404       .  A
C887        H894   1.083       .  S
C888        C889   1.408       .  A
C889        C890   1.394       .  A
C889       Br896   1.916       .  S
C890        C891   1.401       .  A
C890        H895   1.084       .  S
C891        C892   1.405       .  A
C892       Br893   1.916       .  S
