geometry optimzed in LAMMPS
_audit_creation_date              2020-11-30 
_audit_creation_method            'lammps2cif' 
_symmetry_space_group_name_H-M    'P1' 
_symmetry_Int_Tables_number       1 
_symmetry_cell_setting            triclinic 
loop_ 
_symmetry_equiv_pos_as_xyz 
  x,y,z 
_cell_length_a                    29.41059457 
_cell_length_b                    29.42660936347076 
_cell_length_c                    29.406212515664187 
_cell_angle_alpha                 89.97472433526868 
_cell_angle_beta                  90.09234280471286 
_cell_angle_gamma                 91.16253690155321 
loop_ 
_atom_site_label 
_atom_site_type_symbol 
_atom_site_fract_x 
_atom_site_fract_y 
_atom_site_fract_z 
_atom_site_charge 
O1          O  0.54058918  0.05919672  0.87884283    -0.84600
O2          O  0.53880265  0.06257193  0.61989267    -0.84800
O3          O  0.63032394  0.04940125  0.73662270    -0.86500
O4          O  0.52820515  0.15109213  0.76020203    -0.85200
O5          O  0.44998963  0.15044609  0.75972890    -0.84800
O6          O  0.62959921  0.97126738  0.73679608    -0.86200
O7          O  0.57467305  0.10448289  0.67595423    -0.84700
O8          O  0.58301739  0.09472915  0.82304086    -0.84300
Zr9        Zr  0.55223446  0.07318338  0.74921934     2.84300
O10         O  0.48764224  0.07322321  0.70241390    -1.06200
O11         O  0.55227242  0.00880704  0.79611180    -1.07000
C12         C  0.57267135  0.08626678  0.86482053     1.08500
C13         C  0.56624820  0.09440704  0.63407471     1.08400
C14         C  0.64934095  0.01059047  0.73137914     1.11400
C15         C  0.48937087  0.17016783  0.76461516     1.09200
H16         H  0.57617354  0.00935556  0.68296353     0.34700
O17         O  0.55039892  0.00873746  0.70316795    -1.27200
H18         H  0.48792947  0.09748509  0.81509493     0.34400
O19         O  0.48739833  0.07160299  0.79499332    -1.28900
O20         O  0.43971014  0.94867929  0.61919326    -0.84600
O21         O  0.42771051  0.96095459  0.87910034    -0.86100
O22         O  0.57648132  0.91589141  0.67698361    -0.84700
O23         O  0.40163506  0.10399958  0.67530980    -0.84800
O24         O  0.39446344  0.09706564  0.82142302    -0.84500
O25         O  0.58310159  0.92355407  0.82283903    -0.84300
O26         O  0.44560476  0.86459248  0.75745569    -0.84700
O27         O  0.34325216  0.96660619  0.74004793    -0.84100
O28         O  0.52384343  0.86564696  0.75541939    -0.85200
O29         O  0.34404622  0.04479445  0.74185365    -0.84300
O30         O  0.54172129  0.95723698  0.62080045    -0.84700
O31         O  0.54077896  0.95730976  0.87867039    -0.84500
O32         O  0.43582977  0.06210698  0.87746518    -0.84100
O33         O  0.43618678  0.06238808  0.61941553    -0.84500
O34         O  0.40260561  0.90781355  0.67511444    -0.84800
O35         O  0.38640775  0.92426703  0.82317798    -0.86200
Zr36       Zr  0.48663496  0.00785234  0.65633338     2.83100
Zr37       Zr  0.48643869  0.00763906  0.84157746     2.83500
Zr38       Zr  0.55106109  0.94436362  0.74970180     2.84100
Zr39       Zr  0.42285032  0.07201098  0.74838828     2.83400
Zr40       Zr  0.42108722  0.94238498  0.74906486     2.84200
O41         O  0.42178248  0.00737708  0.79474981    -1.06700
O42         O  0.48621529  0.94347475  0.70347780    -1.06200
C43         C  0.41360567  0.91562287  0.63319223     1.08400
C44         C  0.39448976  0.93509119  0.86514098     1.11100
C45         C  0.56964418  0.92693942  0.63518814     1.08600
C46         C  0.41023784  0.09451782  0.63343785     1.09000
C47         C  0.40545424  0.08992414  0.86320977     1.08500
C48         C  0.57320502  0.93175521  0.86468427     1.08100
C49         C  0.48460851  0.84548143  0.75906295     1.08500
C50         C  0.32401176  0.00549524  0.73808508     1.08000
H51         H  0.48551017  0.91663626  0.81598753     0.34700
O52         O  0.48585520  0.94270722  0.79602613    -1.27800
H53         H  0.39559601  0.00660946  0.68192575     0.34700
O54         O  0.42164255  0.00699132  0.70193681    -1.29200
C55         C  0.69748262  0.21267627  0.50511040     0.88300
C56         C  0.68020268  0.17899617  0.54141074    -0.51900
C57         C  0.63381758  0.17544474  0.54299789     0.11300
C58         C  0.60928915  0.20583751  0.50865667     0.22200
C59         C  0.67595608  0.19615791  0.46051796    -0.52600
C60         C  0.62975051  0.19165971  0.46234025     0.11400
C61         C  0.67489900  0.25733997  0.51618711    -0.52200
C62         C  0.62897437  0.25407582  0.51883075     0.11900
H63         H  0.70237691  0.15978827  0.56350885     0.16400
H64         H  0.57159534  0.20295191  0.51030454     0.02200
H65         H  0.69575296  0.18561116  0.43132701     0.16700
H66         H  0.69377895  0.28887384  0.52256956     0.16500
O67         O  0.58211806  0.11737405  0.32270993    -0.84600
O68         O  0.41173058  0.92054434  0.32437320    -0.84800
O69         O  0.44485365  0.06808962  0.37756389    -0.86500
O70         O  0.54985783  0.96339452  0.37907010    -0.85200
O71         O  0.58375263  0.92111364  0.32329419    -0.84800
O72         O  0.40944024  0.10883582  0.32135512    -0.86200
O73         O  0.44766732  0.96318324  0.37982909    -0.84700
O74         O  0.54580144  0.07624301  0.37891055    -0.84300
Zr75       Zr  0.49902457  0.01718677  0.34191576     2.84300
O76         O  0.49787098  0.95118462  0.29679405    -1.06200
O77         O  0.49874518  0.08149124  0.29471650    -1.07000
C78         C  0.57149707  0.10945851  0.36472573     1.08500
C79         C  0.42040141  0.93107871  0.36608963     1.08400
C80         C  0.41694370  0.09827281  0.36314943     1.11400
C81         C  0.57558630  0.93110048  0.36512641     1.09200
H82         H  0.40870001  0.01538418  0.31576470     0.34700
O83         O  0.43461331  0.01581907  0.29570029    -1.27200
H84         H  0.58992108  0.01843180  0.31588671     0.34400
O85         O  0.56372529  0.01787354  0.29605254    -1.28900
O86         O  0.40107361  0.92838522  0.17721479    -0.84600
O87         O  0.59729663  0.10115426  0.17477596    -0.86100
O88         O  0.35530063  0.05273123  0.25952551    -0.84700
O89         O  0.53536086  0.87368936  0.23863256    -0.84800
O90         O  0.64063816  0.97985128  0.25510829    -0.84500
O91         O  0.46042642  0.15883459  0.24154003    -0.84300
O92         O  0.44319069  0.06592369  0.11943562    -0.84700
O93         O  0.54781136  0.96029602  0.12130384    -0.84100
O94         O  0.40163925  0.10046124  0.17535109    -0.85200
O95         O  0.58971263  0.92597859  0.17735589    -0.84300
O96         O  0.35495439  0.97459857  0.26079736    -0.84700
O97         O  0.53864638  0.16017491  0.23978110    -0.84500
O98         O  0.64143726  0.05806851  0.25690486    -0.84100
O99         O  0.45717564  0.87271368  0.23881444    -0.84500
O100        O  0.44237498  0.96426176  0.12079602    -0.84800
O101        O  0.55651503  0.06319165  0.11925532    -0.86200
Zr102      Zr  0.43310042  0.95075301  0.25030221     2.83100
Zr103      Zr  0.56352455  0.08239946  0.24884243     2.83500
Zr104      Zr  0.43388159  0.07990068  0.24852729     2.84100
Zr105      Zr  0.56206203  0.95239990  0.25008688     2.83400
Zr106      Zr  0.49790124  0.01591958  0.15672969     2.84200
O107        O  0.56266227  0.01696171  0.20351921    -1.06700
O108        O  0.43281868  0.01487052  0.20306136    -1.06200
C109        C  0.41053341  0.93701617  0.13524690     1.08400
C110        C  0.58924516  0.08990079  0.13296689     1.11100
C111        C  0.33557563  0.01336103  0.26443436     1.08600
C112        C  0.49604402  0.85376404  0.23380743     1.09000
C113        C  0.66065253  0.01914102  0.25849478     1.08500
C114        C  0.49957739  0.17917403  0.23775447     1.08100
C115        C  0.41101388  0.09181829  0.13346754     1.08500
C116        C  0.57812028  0.93239199  0.13562423     1.08000
H117        H  0.49888089  0.10712238  0.18180176     0.34700
O118        O  0.49871873  0.08118822  0.20192255    -1.27800
H119        H  0.49658836  0.92639223  0.18396286     0.34700
O120        O  0.49733856  0.95239550  0.20388727    -1.29200
C121        C  0.29280135  0.80715693  0.00447934     0.88300
C122        C  0.30961109  0.82933999  0.96037432    -0.51900
C123        C  0.31340334  0.87555177  0.96279063     0.11300
C124        C  0.29834945  0.89527594  0.00919404     0.22200
C125        C  0.32578006  0.82440326  0.04146220    -0.52600
C126        C  0.32869874  0.87076532  0.04366628     0.11400
C127        C  0.24770406  0.82890708  0.01516681    -0.52200
C128        C  0.25023505  0.87472368  0.01842288     0.11900
H129        H  0.32065246  0.81002345  0.93104444     0.16400
H130        H  0.30065173  0.93295077  0.01135529     0.02200
H131        H  0.34506299  0.80223730  0.06349737     0.16700
H132        H  0.21633170  0.80950952  0.02086653     0.16500
C133        C  0.69188897  0.80900126  0.99742518     0.88300
C134        C  0.66089260  0.81996632  0.03803469    -0.51900
C135        C  0.64994435  0.86491255  0.04006537     0.11300
C136        C  0.67064916  0.89431895  0.00221304     0.22200
C137        C  0.66612507  0.82597316  0.95540262    -0.52600
C138        C  0.65473360  0.87067138  0.95829140     0.11400
C139        C  0.73294935  0.84119133  0.00256052    -0.52200
C140        C  0.72177210  0.88568284  0.00549291     0.11900
H141        H  0.64910834  0.79492349  0.06271447     0.16400
H142        H  0.66172819  0.93079789  0.00435091     0.02200
H143        H  0.65647333  0.80437282  0.92688372     0.16700
H144        H  0.76780525  0.82974829  0.00479904     0.16500
C145        C  0.69499361  0.81119099  0.50012222     0.88300
C146        C  0.67942438  0.83731104  0.45779920    -0.51900
C147        C  0.63474274  0.84900291  0.45939797     0.11300
C148        C  0.60965973  0.83297253  0.50243824     0.22200
C149        C  0.68299972  0.84204746  0.54062177    -0.52600
C150        C  0.63802060  0.85333080  0.54130611     0.11400
C151        C  0.66242295  0.77037546  0.50400474    -0.52200
C152        C  0.61794495  0.78180611  0.50566161     0.11900
H153        H  0.70193432  0.84699588  0.43002766     0.16400
H154        H  0.57316546  0.84208568  0.50347250     0.02200
H155        H  0.70741006  0.85363163  0.56605653     0.16700
H156        H  0.67358504  0.73544924  0.50643119     0.16500
C157        C  0.29063944  0.21329069  0.00013678     0.88300
C158        C  0.31648924  0.19693630  0.04246012    -0.51900
C159        C  0.32771964  0.15207164  0.04037809     0.11300
C160        C  0.31143559  0.12771957  0.99690574     0.22200
C161        C  0.32147945  0.20135492  0.95974144    -0.52600
C162        C  0.33222471  0.15635818  0.95852580     0.11400
C163        C  0.24942867  0.18120720  0.99569173    -0.52200
C164        C  0.26031048  0.13659655  0.99347160     0.11900
H165        H  0.32653549  0.21908941  0.07041705     0.16400
H166        H  0.32017352  0.09116512  0.99532581     0.02200
H167        H  0.33340022  0.22587438  0.93460705     0.16700
H168        H  0.21467950  0.19284181  0.99288176     0.16500
C169        C  0.69118887  0.21709642  0.99239000     0.88300
C170        C  0.65731830  0.19939276  0.95654146    -0.51900
C171        C  0.65407201  0.15308599  0.95537253     0.11300
C172        C  0.68490430  0.12895776  0.98949795     0.22200
C173        C  0.67513163  0.19587625  0.03730276    -0.52600
C174        C  0.67090657  0.14960862  0.03575629     0.11400
C175        C  0.73593591  0.19474221  0.98112426    -0.52200
C176        C  0.73291293  0.14883598  0.97874513     0.11900
H177        H  0.63773055  0.22122546  0.93443220     0.16400
H178        H  0.68220482  0.09126391  0.98802117     0.02200
H179        H  0.66446919  0.21584249  0.06633341     0.16700
H180        H  0.76724422  0.21376578  0.97409101     0.16500
C181        C  0.29235340  0.21464758  0.49666742     0.88300
C182        C  0.30499251  0.18330460  0.45694822    -0.51900
C183        C  0.34988696  0.17216651  0.45709998     0.11300
C184        C  0.37774930  0.19301049  0.49600862     0.22200
C185        C  0.30734120  0.18918279  0.53967368    -0.52600
C186        C  0.35210630  0.17753331  0.53895204     0.11400
C187        C  0.32493991  0.25554159  0.49261807    -0.52200
C188        C  0.36951674  0.24410338  0.49171659     0.11900
H189        H  0.28103640  0.17140812  0.43121634     0.16400
H190        H  0.41424964  0.18387051  0.49550899     0.02200
H191        H  0.28435518  0.17963749  0.56709731     0.16700
H192        H  0.31373171  0.29034241  0.48899256     0.16500
C193        C  0.28829550  0.81209806  0.49221366     0.88300
C194        C  0.30934515  0.82750778  0.53749194    -0.51900
C195        C  0.35566581  0.83182317  0.53629772     0.11300
C196        C  0.37653904  0.81824330  0.48993693     0.22200
C197        C  0.30632141  0.84643408  0.45693465    -0.52600
C198        C  0.35271856  0.84962584  0.45609722     0.11400
C199        C  0.31057072  0.76757829  0.48046749    -0.52200
C200        C  0.35643222  0.77046352  0.47830166     0.11900
H201        H  0.28919589  0.83804512  0.56643393     0.16400
H202        H  0.41427027  0.82076023  0.48871666     0.02200
H203        H  0.28463616  0.86630381  0.43494314     0.16700
H204        H  0.29146916  0.73644890  0.47280171     0.16500
O205        O  0.84668176  0.76639509  0.45544464    -0.84600
O206        O  0.03174034  0.75183385  0.63476284    -0.84800
O207        O  0.89943698  0.68470268  0.58100228    -0.86500
O208        O  0.90297845  0.83186117  0.58807080    -0.85200
O209        O  0.93664727  0.88897021  0.54569309    -0.84800
O210        O  0.94243333  0.63071640  0.54552002    -0.86200
O211        O  0.95357244  0.74938334  0.63581563    -0.84700
O212        O  0.84805634  0.76595028  0.53364741    -0.84300
Zr213      Zr  0.92706143  0.75925726  0.55768129     2.84300
O214        O  0.99063248  0.80829071  0.55755375    -1.06200
O215        O  0.92658063  0.71224046  0.49331765    -1.07000
C216        C  0.82777597  0.76993764  0.49494164     1.08500
C217        C  0.99302666  0.74593495  0.65470837     1.08400
C218        C  0.91115331  0.64351429  0.57310345     1.11400
C219        C  0.90996248  0.87397977  0.57752180     1.09200
H220        H  0.99318621  0.69551345  0.58196764     0.34700
O221        O  0.99248692  0.71555909  0.55604756    -1.27200
H222        H  0.89981237  0.82363236  0.49307086     0.34400
O223        O  0.92620765  0.80471192  0.49261048    -1.28900
O224        O  0.13359991  0.77656281  0.53074321    -0.84600
O225        O  0.95039246  0.75209621  0.34922509    -0.86100
O226        O  0.04694687  0.63475044  0.54527995    -0.84700
O227        O  0.03831525  0.89282729  0.54780594    -0.84800
O228        O  0.93437520  0.88709669  0.44035361    -0.84500
O229        O  0.93592971  0.62887506  0.44476714    -0.84300
O230        O  0.08889075  0.69284300  0.40600879    -0.84700
O231        O  0.07453500  0.83895249  0.39367436    -0.84100
O232        O  0.04927158  0.63506691  0.44208040    -0.85200
O233        O  0.03773024  0.89338374  0.43492085    -0.84300
O234        O  0.08745977  0.69232338  0.58070191    -0.84700
O235        O  0.89250664  0.68267193  0.40958476    -0.84500
O236        O  0.89887030  0.82974768  0.39951967    -0.84100
O237        O  0.07447474  0.83809925  0.58948013    -0.84500
O238        O  0.13297865  0.77786849  0.45250154    -0.84800
O239        O  0.02861887  0.75620447  0.34859557    -0.86200
Zr240      Zr  0.05595721  0.76435297  0.55642056     2.83100
Zr241      Zr  0.92488333  0.75767843  0.42826410     2.83500
Zr242      Zr  0.99304721  0.66917697  0.49198711     2.84100
Zr243      Zr  0.98928019  0.85404567  0.49196578     2.83400
Zr244      Zr  0.05486984  0.76474412  0.42672024     2.84200
O245        O  0.98857052  0.80714873  0.42731912    -1.06700
O246        O  0.05691646  0.71843006  0.49146930    -1.06200
C247        C  0.15267693  0.78173549  0.49162546     1.08400
C248        C  0.98946470  0.75148083  0.32915646     1.11100
C249        C  0.07782542  0.65003635  0.57308326     1.08600
C250        C  0.06457960  0.87958482  0.58032941     1.09000
C251        C  0.90632771  0.87171841  0.41002065     1.08500
C252        C  0.90229957  0.64117967  0.41937775     1.08100
C253        C  0.08098352  0.65063075  0.41561296     1.08500
C254        C  0.06448769  0.88057674  0.40251351     1.08000
H255        H  0.99144909  0.69482612  0.40091772     0.34700
O256        O  0.99127281  0.71473157  0.42699623    -1.27800
H257        H  0.08017189  0.83238703  0.49150607     0.34700
O258        O  0.05479257  0.81107237  0.49160805    -1.29200
O259        O  0.85265089  0.24508354  0.46200112    -0.84600
O260        O  0.03626855  0.27325700  0.64199417    -0.84800
O261        O  0.91147722  0.18306102  0.59804711    -0.86500
O262        O  0.89809933  0.32914330  0.58752187    -0.85200
O263        O  0.93757010  0.38699826  0.55133846    -0.84800
O264        O  0.94844249  0.12877852  0.55675495    -0.86200
O265        O  0.95812654  0.26859007  0.64284668    -0.84700
O266        O  0.85399240  0.24365578  0.54015327    -0.84300
Zr267      Zr  0.93177801  0.25749472  0.56539626     2.84300
O268        O  0.99510502  0.30746947  0.56501367    -1.06200
O269        O  0.93138100  0.21154930  0.50054393    -1.07000
C270        C  0.83392197  0.23993468  0.50130175     1.08500
C271        C  0.99724406  0.27431704  0.66197890     1.08400
C272        C  0.92138704  0.14140237  0.58905022     1.11400
C273        C  0.90613489  0.37140004  0.57817076     1.09200
H274        H  0.99941572  0.19720821  0.59239503     0.34700
O275        O  0.99820997  0.21534672  0.56505789    -1.27200
H276        H  0.90140560  0.32060825  0.50045583     0.34400
O277        O  0.92925230  0.30376552  0.50061537    -1.28900
O278        O  0.13924270  0.25563027  0.53647242    -0.84600
O279        O  0.95408476  0.27346905  0.35798888    -0.86100
O280        O  0.05325685  0.13559404  0.55050837    -0.84700
O281        O  0.05014091  0.39381886  0.54781564    -0.84800
O282        O  0.93941572  0.38744400  0.44656230    -0.84500
O283        O  0.94704149  0.12954306  0.44572935    -0.84300
O284        O  0.08383334  0.19123386  0.40371844    -0.84700
O285        O  0.08510930  0.33824794  0.40906981    -0.84100
O286        O  0.05040511  0.13429345  0.44658191    -0.85200
O287        O  0.04180272  0.39187099  0.44475291    -0.84300
O288        O  0.08857129  0.19290755  0.59154198    -0.84700
O289        O  0.91023125  0.18391299  0.40406647    -0.84500
O290        O  0.89882000  0.32990868  0.41112233    -0.84100
O291        O  0.09366036  0.34013712  0.58312534    -0.84500
O292        O  0.13813891  0.25592173  0.45833901    -0.84800
O293        O  0.03217950  0.27623036  0.35667511    -0.86200
Zr294      Zr  0.06161265  0.26514719  0.56347087     2.83100
Zr295      Zr  0.93009743  0.25793769  0.43576441     2.83500
Zr296      Zr  0.99728703  0.16866688  0.50008993     2.84100
Zr297      Zr  0.99315434  0.35334870  0.50010139     2.83400
Zr298      Zr  0.05924607  0.26359036  0.43403612     2.84200
O299        O  0.99354183  0.30645405  0.43611979    -1.06700
O300        O  0.06029163  0.21850741  0.49917368    -1.06200
C301        C  0.15825883  0.25204030  0.49715646     1.08400
C302        C  0.99267749  0.28033778  0.33814341     1.11100
C303        C  0.08132394  0.15089904  0.58085792     1.08600
C304        C  0.08373418  0.38163545  0.57341532     1.09000
C305        C  0.90856435  0.37217209  0.41874491     1.08500
C306        C  0.92014260  0.14251816  0.41364519     1.08100
C307        C  0.07692835  0.14919459  0.41460053     1.08500
C308        C  0.07274158  0.37930223  0.41665060     1.08000
H309        H  0.99614448  0.19642136  0.40678754     0.34700
O310        O  0.99577314  0.21445918  0.43418380    -1.27800
H311        H  0.08683012  0.32981337  0.49714542     0.34700
O312        O  0.05995345  0.31047957  0.49830726    -1.29200
C313        C  0.78929929  0.50973991  0.69445155     0.88300
C314        C  0.81151082  0.46555271  0.67922638    -0.51900
C315        C  0.82343893  0.46581023  0.63437583     0.11300
C316        C  0.81138414  0.50963123  0.60890205     0.22200
C317        C  0.82347566  0.54765986  0.68168771    -0.52600
C318        C  0.83481848  0.54721457  0.63678646     0.11400
C319        C  0.74891122  0.51609339  0.66257737    -0.52200
C320        C  0.76058580  0.51661788  0.61784287     0.11900
H321        H  0.81916739  0.43777066  0.70216536     0.16400
H322        H  0.82084939  0.50986287  0.57230806     0.02200
H323        H  0.83685304  0.57275676  0.70555992     0.16700
H324        H  0.71441049  0.52146373  0.67435124     0.16500
C325        C  0.19214426  0.51729768  0.70328892     0.88300
C326        C  0.16018871  0.55553266  0.68830405    -0.51900
C327        C  0.15580097  0.55881804  0.64195719     0.11300
C328        C  0.18374466  0.52425428  0.61534760     0.22200
C329        C  0.17242240  0.47414953  0.68078222    -0.52600
C330        C  0.16704687  0.47786365  0.63474690     0.11400
C331        C  0.23680847  0.52748777  0.67907914    -0.52200
C332        C  0.23282709  0.53200843  0.63346016     0.11900
H333        H  0.14264342  0.57748361  0.71188482     0.16400
H334        H  0.18035908  0.52731432  0.57783011     0.02200
H335        H  0.16066744  0.44461680  0.69995755     0.16700
H336        H  0.26903485  0.53228093  0.69684081     0.16500
C337        C  0.79475805  0.01369978  0.29191011     0.88300
C338        C  0.80260313  0.97284909  0.32315125    -0.51900
C339        C  0.84709505  0.96854386  0.33497549     0.11300
C340        C  0.87936423  0.00464990  0.31495039     0.22200
C341        C  0.81443642  0.05482518  0.31775511    -0.52600
C342        C  0.85876431  0.04970015  0.33009354     0.11400
C343        C  0.82629410  0.00686789  0.25143807    -0.52200
C344        C  0.87050593  0.00169248  0.26364614     0.11900
H345        H  0.77582458  0.94956654  0.33455545     0.16400
H346        H  0.91557048  0.00059064  0.32482437     0.02200
H347        H  0.79476330  0.08426619  0.32702775     0.16700
H348        H  0.81459916  0.00503381  0.21638119     0.16500
C349        C  0.78349990  0.00760802  0.69322711     0.88300
C350        C  0.80743901  0.05058161  0.67421206    -0.51900
C351        C  0.85354400  0.04647109  0.66933972     0.11300
C352        C  0.87130272  0.99996531  0.68578091     0.22200
C353        C  0.79764530  0.96911407  0.66096727    -0.52600
C354        C  0.84386267  0.96552265  0.65700576     0.11400
C355        C  0.80706018  0.99760963  0.73797902    -0.52200
C356        C  0.85249030  0.99268708  0.73456720     0.11900
H357        H  0.78920442  0.08019351  0.66268183     0.16400
H358        H  0.90872996  0.99644435  0.68281885     0.02200
H359        H  0.77360100  0.94725280  0.64280367     0.16700
H360        H  0.78887855  0.99302167  0.76991836     0.16500
C361        C  0.79795436  0.50555312  0.28716665     0.88300
C362        C  0.81746520  0.54843578  0.31020968    -0.51900
C363        C  0.82087385  0.54478637  0.35640047     0.11300
C364        C  0.80273586  0.49869512  0.37528647     0.22200
C365        C  0.82860446  0.46687323  0.30333779    -0.52600
C366        C  0.83116389  0.46361453  0.34975854     0.11400
C367        C  0.75217635  0.49620225  0.30955726    -0.52200
C368        C  0.75420687  0.49186756  0.35530456     0.11900
H369        H  0.83032115  0.57778052  0.29141763     0.16400
H370        H  0.80467270  0.49568919  0.41290601     0.02200
H371        H  0.84683960  0.44473747  0.28046821     0.16700
H372        H  0.72058646  0.49213738  0.29053896     0.16500
C373        C  0.19795530  0.51310629  0.29855739     0.88300
C374        C  0.16296486  0.47545674  0.30988498    -0.51900
C375        C  0.15077936  0.47510877  0.35457103     0.11300
C376        C  0.17437533  0.51166385  0.38371634     0.22200
C377        C  0.17612656  0.55730218  0.31441620    -0.52600
C378        C  0.16342980  0.55621478  0.35906138     0.11400
C379        C  0.23766656  0.50545812  0.33097424    -0.52200
C380        C  0.22525236  0.50426429  0.37550432     0.11900
H381        H  0.14947028  0.45124458  0.28518303     0.16400
H382        H  0.16426483  0.51081157  0.42013018     0.02200
H383        H  0.16929102  0.58572566  0.29199837     0.16700
H384        H  0.27237865  0.50036607  0.31969493     0.16500
C385        C  0.19997275  0.01530972  0.29695466     0.88300
C386        C  0.18631664  0.05367482  0.32938107    -0.51900
C387        C  0.14027822  0.05698687  0.33428793     0.11300
C388        C  0.11234999  0.02234217  0.30624247     0.22200
C389        C  0.17679694  0.97221451  0.31645088    -0.52600
C390        C  0.13080309  0.97600039  0.32214767     0.11400
C391        C  0.17540903  0.02508454  0.25257990    -0.52200
C392        C  0.12991823  0.02962566  0.25706484     0.11900
H393        H  0.21060081  0.07575487  0.34697630     0.16400
H394        H  0.07497806  0.02561802  0.31011514     0.02200
H395        H  0.19545203  0.94269536  0.32752761     0.16700
H396        H  0.19286829  0.02972410  0.22026697     0.16500
C397        C  0.18999947  0.00924864  0.70242292     0.88300
C398        C  0.17034970  0.96773596  0.67698440    -0.51900
C399        C  0.12605297  0.97274588  0.66419198     0.11300
C400        C  0.10551915  0.01814923  0.67856466     0.22200
C401        C  0.18243190  0.04963080  0.67053079    -0.52600
C402        C  0.13808443  0.05392650  0.65819581     0.11400
C403        C  0.15814944  0.01667069  0.74251832    -0.52200
C404        C  0.11401737  0.02169448  0.72997805     0.11900
H405        H  0.19001673  0.93810548  0.66835205     0.16400
H406        H  0.06940134  0.02217470  0.66837209     0.02200
H407        H  0.20938138  0.07264164  0.65898191     0.16700
H408        H  0.16956665  0.01872045  0.77765801     0.16500
O409        O  0.73597545  0.65687641  0.95285188    -0.84600
O410        O  0.75723261  0.47424492  0.13313839    -0.84800
O411        O  0.67455392  0.60314594  0.08762503    -0.86500
O412        O  0.82137821  0.60418525  0.08015761    -0.85200
O413        O  0.87458513  0.55998796  0.04493979    -0.84800
O414        O  0.61689984  0.56919755  0.04600738    -0.86200
O415        O  0.76029104  0.55228428  0.13365998    -0.84700
O416        O  0.73749598  0.65647268  0.03097727    -0.84300
Zr417      Zr  0.74639556  0.57821276  0.05620031     2.84300
O418        O  0.78922844  0.51253906  0.05433883    -1.06200
O419        O  0.70055627  0.57856993  0.99156108    -1.07000
C420        C  0.73246471  0.67610799  0.99210902     1.08500
C421        C  0.76447605  0.51299525  0.15251996     1.08400
C422        C  0.63228903  0.59607943  0.07754639     1.11400
C423        C  0.86231670  0.59132541  0.07277244     1.09200
H424        H  0.67939588  0.51546753  0.08510219     0.34700
O425        O  0.69710099  0.51491351  0.05750619    -1.27200
H426        H  0.81193494  0.60492538  0.99226914     0.34400
O427        O  0.79259695  0.57804162  0.99147085    -1.28900
O428        O  0.72604911  0.37203114  0.03100335    -0.84600
O429        O  0.75391693  0.55249027  0.84854868    -0.86100
O430        O  0.61206204  0.46510414  0.04681221    -0.84700
O431        O  0.86998314  0.45766747  0.04339675    -0.84800
O432        O  0.87533428  0.56782450  0.94177747    -0.84500
O433        O  0.61712055  0.57147582  0.94138515    -0.84300
O434        O  0.66396927  0.42946689  0.89436148    -0.84700
O435        O  0.81036274  0.41485048  0.90401790    -0.84100
O436        O  0.61019394  0.46695699  0.93592251    -0.85200
O437        O  0.86865563  0.45507727  0.93880066    -0.84300
O438        O  0.66696700  0.42912182  0.08851819    -0.84700
O439        O  0.67398868  0.60556420  0.89882875    -0.84500
O440        O  0.82128259  0.61105432  0.90660242    -0.84100
O441        O  0.81263912  0.41769069  0.07972646    -0.84500
O442        O  0.72361887  0.37207456  0.95286703    -0.84800
O443        O  0.74946025  0.47436842  0.84856551    -0.86200
Zr444      Zr  0.74057377  0.44933662  0.05594025     2.83100
Zr445      Zr  0.74645872  0.57900110  0.92676456     2.83500
Zr446      Zr  0.65053688  0.51577519  0.99210343     2.84100
Zr447      Zr  0.83544106  0.51114860  0.98995470     2.83400
Zr448      Zr  0.73884866  0.44917674  0.92634909     2.84200
O449        O  0.78881021  0.51247892  0.92547316    -1.06700
O450        O  0.69359750  0.45002246  0.99161873    -1.06200
C451        C  0.71987407  0.35282906  0.99211350     1.08400
C452        C  0.75499868  0.51324122  0.82901794     1.11100
C453        C  0.62536590  0.43837405  0.07894358     1.08600
C454        C  0.85486196  0.42712286  0.07155519     1.09000
C455        C  0.86286862  0.60128735  0.91623989     1.08500
C456        C  0.63210926  0.59892530  0.91034120     1.08100
C457        C  0.62247023  0.43984074  0.90357624     1.08500
C458        C  0.85280166  0.42313778  0.91264453     1.08000
H459        H  0.67823354  0.51663887  0.89945828     0.34700
O460        O  0.69665570  0.51564687  0.92663262    -1.27800
H461        H  0.80255150  0.41940691  0.99095399     0.34700
O462        O  0.78579816  0.44730074  0.99068423    -1.29200
O463        O  0.25796365  0.65236693  0.96187655    -0.84600
O464        O  0.23346714  0.47155936  0.14451966    -0.84800
O465        O  0.17537937  0.60907390  0.08745250    -0.86500
O466        O  0.32165062  0.59444273  0.09857055    -0.85200
O467        O  0.37578829  0.55697278  0.05760038    -0.84800
O468        O  0.11710281  0.56927378  0.05221276    -0.86200
O469        O  0.23824385  0.54970425  0.14442829    -0.84700
O470        O  0.25958542  0.65225996  0.04011136    -0.84300
Zr471      Zr  0.24689765  0.57463485  0.06617849     2.84300
O472        O  0.28922401  0.50836957  0.06631903    -1.06200
O473        O  0.20009965  0.57618892  0.00163797    -1.07000
C474        C  0.26323689  0.67167429  0.00093957     1.08500
C475        C  0.23303787  0.51083366  0.16413003     1.08400
C476        C  0.13301555  0.60110550  0.07843949     1.11400
C477        C  0.36325981  0.58416064  0.08975507     1.09200
H478        H  0.17664618  0.51194955  0.09274826     0.34700
O479        O  0.19646908  0.51142269  0.06663229    -1.27200
H480        H  0.31406821  0.59918294  0.00092683     0.34400
O481        O  0.29273249  0.57382673  0.00108458    -1.28900
O482        O  0.24758341  0.36651600  0.04061667    -0.84600
O483        O  0.23293058  0.54913074  0.85819066    -0.86100
O484        O  0.11033445  0.45537776  0.04921285    -0.84700
O485        O  0.36896960  0.45374565  0.05328387    -0.84800
O486        O  0.37416592  0.55760121  0.94577626    -0.84500
O487        O  0.11614507  0.56651203  0.94850623    -0.84300
O488        O  0.16524834  0.41783985  0.91382762    -0.84700
O489        O  0.31216295  0.42186609  0.90532935    -0.84100
O490        O  0.11151312  0.46173973  0.94858950    -0.85200
O491        O  0.36964517  0.45595272  0.94705440    -0.84300
O492        O  0.16437857  0.41247930  0.08470851    -0.84700
O493        O  0.17373197  0.60615569  0.91222827    -0.84500
O494        O  0.31931664  0.59330311  0.90378864    -0.84100
O495        O  0.31164138  0.41917507  0.09480866    -0.84500
O496        O  0.24728454  0.36659776  0.96241095    -0.84800
O497        O  0.22961217  0.47100721  0.85803011    -0.86200
Zr498      Zr  0.23933603  0.44504968  0.06599318     2.83100
Zr499      Zr  0.24560628  0.57443425  0.93646233     2.83500
Zr500      Zr  0.15040630  0.51263151  0.00191352     2.84100
Zr501      Zr  0.33554725  0.50826989  0.00133937     2.83400
Zr502      Zr  0.23998283  0.44541434  0.93662667     2.84200
O503        O  0.28924227  0.50890044  0.93598177    -1.06700
O504        O  0.19339261  0.44612050  0.00118263    -1.06200
C505        C  0.25113364  0.34690946  0.00152196     1.08400
C506        C  0.22660719  0.51024439  0.83858046     1.11100
C507        C  0.12280635  0.42184954  0.07464750     1.08600
C508        C  0.35365334  0.42621778  0.08409232     1.09000
C509        C  0.36084216  0.58383655  0.91329263     1.08500
C510        C  0.13145045  0.59695718  0.92030939     1.08100
C511        C  0.12412858  0.42998780  0.92140207     1.08500
C512        C  0.35434583  0.42935815  0.91530876     1.08000
H513        H  0.17644406  0.51166251  0.91179516     0.34700
O514        O  0.19656722  0.51112934  0.93769417    -1.27800
H515        H  0.30490766  0.41890315  0.00117796     0.34700
O516        O  0.28601595  0.44531740  0.00142786    -1.29200
C517        C  0.99969232  0.71074818  0.78922318     0.88300
C518        C  0.03794068  0.67912048  0.80471410    -0.51900
C519        C  0.04045761  0.67466782  0.85107125     0.11300
C520        C  0.00519344  0.70223539  0.87715901     0.22200
C521        C  0.95630397  0.69067897  0.81076503    -0.52600
C522        C  0.95926829  0.68526668  0.85680153     0.11400
C523        C  0.00907967  0.75540540  0.81365702    -0.52200
C524        C  0.01283081  0.75136640  0.85930719     0.11900
H525        H  0.06044114  0.66183076  0.78146582     0.16400
H526        H  0.00762018  0.69878256  0.91471469     0.02200
H527        H  0.92718659  0.67875141  0.79099158     0.16700
H528        H  0.01388862  0.78768508  0.79606013     0.16500
C529        C  0.99337117  0.30762750  0.79701960     0.88300
C530        C  0.94870234  0.32935241  0.81173775    -0.51900
C531        C  0.94803089  0.34076781  0.85674127     0.11300
C532        C  0.99152491  0.32869387  0.88284537     0.22200
C533        C  0.03082301  0.34191728  0.81095202    -0.52600
C534        C  0.02945201  0.35274828  0.85599082     0.11400
C535        C  0.99945707  0.26692169  0.82853688    -0.52200
C536        C  0.99902355  0.27806402  0.87343503     0.11900
H537        H  0.92127266  0.33710111  0.78837218     0.16400
H538        H  0.99101777  0.33772314  0.91954975     0.02200
H539        H  0.05616647  0.35587182  0.78769699     0.16700
H540        H  0.00506913  0.23258015  0.81644993     0.16500
C541        C  0.48953927  0.71107245  0.79251007     0.88300
C542        C  0.44845806  0.69139212  0.81851166    -0.51900
C543        C  0.45337425  0.64688338  0.83034464     0.11300
C544        C  0.49821696  0.62618301  0.81464165     0.22200
C545        C  0.53064728  0.70259499  0.82336266    -0.52600
C546        C  0.53478022  0.65798362  0.83480104     0.11400
C547        C  0.49573590  0.67982753  0.75168328    -0.52200
C548        C  0.50070029  0.63549109  0.76337700     0.11900
H549        H  0.41915573  0.71112770  0.82809138     0.16400
H550        H  0.50210254  0.58987097  0.82407620     0.02200
H551        H  0.55415465  0.72912539  0.83492519     0.16700
H552        H  0.49729240  0.69180080  0.71672319     0.16500
C553        C  0.49853110  0.71957085  0.19589025     0.88300
C554        C  0.53711372  0.70609898  0.16352797    -0.51900
C555        C  0.54047733  0.66005346  0.15830389     0.11300
C556        C  0.50566767  0.63202259  0.18602686     0.22200
C557        C  0.45549550  0.69647602  0.17598942    -0.52600
C558        C  0.45931933  0.65052433  0.16995192     0.11400
C559        C  0.50812293  0.69476949  0.24006235    -0.52200
C560        C  0.51276868  0.64940283  0.23534633     0.11900
H561        H  0.55927688  0.73048373  0.14624046     0.16400
H562        H  0.50897809  0.59468833  0.18200026     0.02200
H563        H  0.42595490  0.71516217  0.16499364     0.16700
H564        H  0.51264632  0.71204301  0.27252392     0.16500
C565        C  0.98620530  0.31465696  0.20348214     0.88300
C566        C  0.02968745  0.33374609  0.18123664    -0.51900
C567        C  0.02665756  0.33787325  0.13503969     0.11300
C568        C  0.98050219  0.32052284  0.11532280     0.22200
C569        C  0.94820629  0.34609948  0.18713670    -0.52600
C570        C  0.94559601  0.34920719  0.14069853     0.11400
C571        C  0.97638500  0.26935093  0.18045455    -0.52200
C572        C  0.97245163  0.27193261  0.13473111     0.11900
H573        H  0.05883561  0.34622890  0.20063061     0.16400
H574        H  0.97793694  0.32287864  0.07769164     0.02200
H575        H  0.92598304  0.36434560  0.20990458     0.16700
H576        H  0.97123255  0.23770629  0.19908972     0.16500
C577        C  0.99271629  0.71720647  0.19408059     0.88300
C578        C  0.95589505  0.68156270  0.18178833    -0.51900
C579        C  0.95692543  0.66921309  0.13711681     0.11300
C580        C  0.99383824  0.69327300  0.10893911     0.22200
C581        C  0.03771168  0.69603626  0.17939074    -0.52600
C582        C  0.03795765  0.68315393  0.13475732     0.11400
C583        C  0.98519742  0.75662092  0.16124186    -0.52200
C584        C  0.98530429  0.74396103  0.11671905     0.10300
H585        H  0.93116478  0.66785450  0.20581958     0.16400
H586        H  0.99406424  0.68302386  0.07254784     0.02200
H587        H  0.06568152  0.68970406  0.20257006     0.16700
H588        H  0.97906635  0.79123107  0.17221374     0.16500
C589        C  0.48734085  0.30478195  0.79883626     0.88300
C590        C  0.53043519  0.32818174  0.81805411    -0.51900
C591        C  0.52674215  0.37424413  0.82288029     0.11300
C592        C  0.48048348  0.39250460  0.80625775     0.22200
C593        C  0.44888505  0.31914945  0.83079502    -0.52600
C594        C  0.44568428  0.36527657  0.83472538     0.11400
C595        C  0.47777037  0.32828832  0.75397484    -0.52200
C596        C  0.47327503  0.37377120  0.75741559     0.11900
H597        H  0.55980315  0.30964992  0.82977903     0.16400
H598        H  0.47728067  0.42994261  0.80931604     0.02200
H599        H  0.42675664  0.29530023  0.84885193     0.16700
H600        H  0.47315041  0.31009995  0.72202805     0.16500
C601        C  0.49550152  0.31344625  0.20217857     0.88300
C602        C  0.45414846  0.32198376  0.17166486    -0.51900
C603        C  0.45067143  0.36641470  0.15927407     0.11300
C604        C  0.48804309  0.39802064  0.17817089     0.22200
C605        C  0.53656782  0.33184618  0.17517742    -0.52600
C606        C  0.53230722  0.37619169  0.16237104     0.11400
C607        C  0.49037584  0.34583495  0.24234378    -0.52200
C608        C  0.48600688  0.39001631  0.22965982     0.11900
H609        H  0.42995854  0.29564409  0.16109075     0.16400
H610        H  0.48462768  0.43417397  0.16793212     0.02200
H611        H  0.56543295  0.31140689  0.16578641     0.16700
H612        H  0.48887792  0.33470629  0.27757883     0.16500
O613        O  0.56952811  0.40548214  0.56160758    -0.84600
O614        O  0.44932101  0.49574848  0.35480726    -0.84800
O615        O  0.47667095  0.37065808  0.45423605    -0.86500
O616        O  0.60011956  0.44963601  0.41489741    -0.85200
O617        O  0.62404394  0.52389577  0.42441323    -0.84800
O618        O  0.41851367  0.38427922  0.50438130    -0.86200
O619        O  0.49954740  0.43848951  0.36898798    -0.84700
O620        O  0.56165459  0.38280542  0.48718064    -0.84300
Zr621      Zr  0.52216119  0.44105494  0.44784947     2.84300
O622        O  0.51899280  0.51530758  0.42137905    -1.06200
O623        O  0.49518611  0.43804170  0.52271329    -1.07000
C624        C  0.57281163  0.37619570  0.52874780     1.08500
C625        C  0.47319391  0.46130928  0.34298670     1.08400
C626        C  0.44176134  0.35846979  0.47832158     1.11400
C627        C  0.62988813  0.48281813  0.41153248     1.09200
H628        H  0.42729833  0.44625306  0.43170243     0.34700
O629        O  0.44646510  0.46558750  0.45053090    -1.27200
H630        H  0.59834771  0.47486340  0.49485564     0.34400
O631        O  0.56802270  0.48667406  0.49440315    -1.28900
O632        O  0.41277208  0.61887785  0.43140387    -0.84600
O633        O  0.53642993  0.53065283  0.63753899    -0.86100
O634        O  0.35068887  0.46761838  0.48150102    -0.84700
O635        O  0.55773822  0.58988275  0.38702276    -0.84800
O636        O  0.63560944  0.55608804  0.51236651    -0.84500
O637        O  0.42843656  0.43158479  0.60472029    -0.84300
O638        O  0.38534002  0.57678171  0.57294091    -0.84700
O639        O  0.51095988  0.65445772  0.53804147    -0.84100
O640        O  0.36202507  0.50215237  0.56529779    -0.85200
O641        O  0.57001446  0.64037461  0.48905545    -0.84300
O642        O  0.36492902  0.51780768  0.42298329    -0.84700
O643        O  0.50270827  0.44243312  0.62742968    -0.84500
O644        O  0.62016855  0.50734982  0.57189058    -0.84100
O645        O  0.48305263  0.58086159  0.36497183    -0.84500
O646        O  0.42369305  0.64245127  0.50520740    -0.84800
O647        O  0.48777333  0.58909627  0.62249449    -0.86200
Zr648      Zr  0.44420027  0.54109329  0.42441585     2.83100
Zr649      Zr  0.54095485  0.48419318  0.56869293     2.83500
Zr650      Zr  0.42084636  0.46323322  0.52634862     2.84100
Zr651      Zr  0.56607935  0.56127696  0.46638889     2.83400
Zr652      Zr  0.46453241  0.58474578  0.54369874     2.84200
O653        O  0.53976454  0.55938599  0.54183980    -1.06700
O654        O  0.41823910  0.53784019  0.49893534    -1.06200
C655        C  0.41054790  0.64845892  0.46416099     1.08400
C656        C  0.51362981  0.56598435  0.64881200     1.11100
C657        C  0.33877972  0.49133939  0.44658990     1.08600
C658        C  0.52459544  0.59258729  0.35783907     1.09000
C659        C  0.64684507  0.53300422  0.54797295     1.08500
C660        C  0.46149009  0.42917479  0.63406017     1.08100
C661        C  0.35561202  0.54363747  0.57632964     1.08500
C662        C  0.54657348  0.66633745  0.51491081     1.08000
H663        H  0.45438551  0.51152701  0.60183939     0.34700
O664        O  0.46636473  0.51082712  0.57135497    -1.27800
H665        H  0.49269245  0.61752339  0.45655588     0.34700
O666        O  0.49189640  0.58714441  0.46885424    -1.29200
O667        O  0.09731835  0.93057552  0.06061285    -0.84600
O668        O  0.00807897  0.05545479  0.85557562    -0.84800
O669        O  0.05557210  0.90425244  0.91943703    -0.86500
O670        O  0.13291863  0.03033553  0.95568806    -0.85200
O671        O  0.11818422  0.08868913  0.00529184    -0.84800
O672        O  0.98095156  0.88051570  0.92655543    -0.86200
O673        O  0.06727024  0.00752673  0.87014003    -0.84700
O674        O  0.12113871  0.94210383  0.98700958    -0.84300
Zr675      Zr  0.06327762  0.98337571  0.94876646     2.84300
O676        O  0.03703178  0.05816335  0.95139060    -1.06200
O677        O  0.01625330  0.93673940  0.99300627    -1.07000
C678        C  0.12701062  0.92859713  0.02799225     1.08500
C679        C  0.04377533  0.03331645  0.84406552     1.08400
C680        C  0.02258827  0.87436218  0.91588522     1.11400
C681        C  0.14451844  0.06570824  0.97945064     1.09200
H682        H  0.98974338  0.97306872  0.89060484     0.34700
O683        O  0.98903218  0.98475941  0.92120557    -1.27200
H684        H  0.09589369  0.01077171  0.03629315     0.34400
O685        O  0.06552751  0.00997699  0.02389300    -1.28900
O686        O  0.88330858  0.08853703  0.93278482    -0.84600
O687        O  0.97431459  0.96509916  0.13729003    -0.86100
O688        O  0.90974909  0.94670199  0.88732472    -0.84700
O689        O  0.03431487  0.15311787  0.98066821    -0.84800
O690        O  0.06791895  0.07514028  0.10632296    -0.84500
O691        O  0.94694092  0.86817330  0.00981076    -0.84300
O692        O  0.84914822  0.99281377  0.03954943    -0.84700
O693        O  0.92703875  0.11763312  0.07766520    -0.84100
O694        O  0.86259931  0.93520108  0.98868732    -0.85200
O695        O  0.00130675  0.14170668  0.06839169    -0.84300
O696        O  0.92012171  0.02115627  0.86534258    -0.84700
O697        O  0.99722597  0.88248926  0.06831880    -0.84500
O698        O  0.05927227  0.00031742  0.12770502    -0.84100
O699        O  0.98545421  0.13789983  0.92110806    -0.84500
O700        O  0.86057517  0.07898732  0.00700100    -0.84800
O701        O  0.91710697  0.01565611  0.12409995    -0.86200
Zr702      Zr  0.96170034  0.05900152  0.92455115     2.83100
Zr703      Zr  0.01960409  0.96183253  0.06778410     2.83500
Zr704      Zr  0.94145556  0.93874187  0.96573731     2.84100
Zr705      Zr  0.03900059  0.08380934  0.02703912     2.83400
Zr706      Zr  0.91903296  0.03918274  0.04541067     2.84200
O707        O  0.99335500  0.03638787  0.07198841    -1.06700
O708        O  0.91559069  0.01281188  0.97017017    -1.06200
C709        C  0.85410718  0.09136001  0.96579338     1.08400
C710        C  0.93996213  0.98879898  0.14957000     1.11100
C711        C  0.90718561  0.97993529  0.85825037     1.08600
C712        C  0.01152279  0.16436824  0.94483640     1.09000
C713        C  0.07103582  0.04178842  0.13516431     1.08500
C714        C  0.97095424  0.85627164  0.04456768     1.08100
C715        C  0.83696147  0.95787796  0.01548711     1.08500
C716        C  0.96010775  0.14761769  0.08072190     1.08000
H717        H  0.92490005  0.94426366  0.06046807     0.34700
O718        O  0.94402118  0.96375579  0.04175924    -1.27800
H719        H  0.95253427  0.11567357  0.99841050     0.34700
O720        O  0.96437072  0.08538573  0.99900008    -1.29200
C721        C  0.47676730  0.42450932  0.26269935    -0.11400
C722        C  0.47146230  0.44607246  0.29692206    -0.13000
C723        C  0.45958094  0.39875006  0.71754592    -0.11400
C724        C  0.45355973  0.41226994  0.67922721    -0.13000
C725        C  0.97541654  0.77609735  0.08136048    -0.11400
C726        C  0.96952189  0.80995088  0.05931559    -0.13000
C727        C  0.95858238  0.23143577  0.11007810    -0.11400
C728        C  0.95227598  0.19281279  0.09707118    -0.13000
C729        C  0.53260927  0.60905617  0.31251412    -0.11400
C730        C  0.52653531  0.62330163  0.27446740    -0.13000
C731        C  0.51025427  0.60199158  0.72951501    -0.11400
C732        C  0.51549940  0.58126286  0.69480854    -0.13000
C733        C  0.01362031  0.21041540  0.92934741    -0.11400
C734        C  0.00822837  0.24462675  0.90773347    -0.13000
C735        C  0.02566971  0.79106353  0.88551846    -0.11400
C736        C  0.03103127  0.82930176  0.89974932    -0.13000
C737        C  0.06184441  0.38269772  0.87732541    -0.11400
C738        C  0.08947368  0.40559495  0.89731334    -0.13000
C739        C  0.08763058  0.39172223  0.09306384    -0.11400
C740        C  0.05960572  0.36588764  0.10999966    -0.13000
C741        C  0.10078619  0.63083234  0.09900398    -0.11400
C742        C  0.07328115  0.65583167  0.11550367    -0.13000
C743        C  0.09880678  0.62300307  0.89532473    -0.11400
C744        C  0.07258161  0.64601428  0.87410992    -0.13000
C745        C  0.41349792  0.38679835  0.86414057    -0.11400
C746        C  0.38700373  0.40609160  0.88823529    -0.13000
C747        C  0.42156595  0.62308467  0.85944428    -0.11400
C748        C  0.39490116  0.60442989  0.88470051    -0.13000
C749        C  0.42621127  0.62419257  0.14298799    -0.11400
C750        C  0.39835428  0.60498457  0.11852336    -0.13000
C751        C  0.41483943  0.38314381  0.13141470    -0.11400
C752        C  0.38640350  0.40148580  0.10913004    -0.13000
C753        C  0.56440475  0.39904858  0.13271099    -0.11400
C754        C  0.59123335  0.41742680  0.10734658    -0.13000
C755        C  0.59965063  0.61984369  0.10448874    -0.11400
C756        C  0.57304117  0.63915967  0.12859367    -0.13000
C757        C  0.59903247  0.62351089  0.88552629    -0.11400
C758        C  0.57043478  0.64141801  0.86304905    -0.13000
C759        C  0.58725104  0.41956118  0.87474048    -0.11400
C760        C  0.55949163  0.40070922  0.84998632    -0.13000
C761        C  0.91385364  0.37780432  0.11713467    -0.11400
C762        C  0.88766259  0.40096932  0.09610380    -0.13000
C763        C  0.88519475  0.39338308  0.89225551    -0.11400
C764        C  0.91289193  0.36830089  0.87614210    -0.13000
C765        C  0.89804311  0.63117877  0.89774926    -0.11400
C766        C  0.92616146  0.65702562  0.88115160    -0.13000
C767        C  0.92484097  0.63803483  0.11705901    -0.11400
C768        C  0.89722098  0.61487273  0.09734468    -0.13000
C769        C  0.05906882  0.03597322  0.79805715    -0.11400
C770        C  0.07997097  0.03128337  0.76334104    -0.13000
C771        C  0.10357698  0.04327103  0.21799150    -0.11400
C772        C  0.08838681  0.04942019  0.18029819    -0.13000
C773        C  0.21196614  0.51308260  0.25090708    -0.11400
C774        C  0.22334099  0.51170484  0.21168893    -0.13000
C775        C  0.25805053  0.49467497  0.41034305    -0.11400
C776        C  0.29244041  0.48936788  0.43176343    -0.13000
C777        C  0.79213733  0.50952834  0.23782532    -0.11400
C778        C  0.77999111  0.51202016  0.19874794    -0.13000
C779        C  0.71309480  0.47992572  0.37987715    -0.11400
C780        C  0.67463980  0.47501899  0.39386815    -0.13000
C781        C  0.87728364  0.97856294  0.77446580    -0.11400
C782        C  0.89054422  0.97226116  0.81286674    -0.13000
C783        C  0.92513352  0.98637760  0.19565515    -0.11400
C784        C  0.90427825  0.99160403  0.23026195    -0.13000
C785        C  0.19999284  0.51333961  0.75257675    -0.11400
C786        C  0.21245601  0.51101583  0.79169786    -0.13000
C787        C  0.31054694  0.55161004  0.59290681    -0.11400
C788        C  0.27245987  0.54568227  0.60744846    -0.13000
C789        C  0.77613376  0.51064275  0.74229216    -0.11400
C790        C  0.76510131  0.51239267  0.78157164    -0.13000
C791        C  0.72756164  0.52717547  0.58358292    -0.11400
C792        C  0.69318572  0.53389482  0.56264098    -0.13000
C793        C  0.99139409  0.29561336  0.29182259    -0.11400
C794        C  0.98937018  0.30811775  0.25281941    -0.13000
C795        C  0.99508440  0.29506909  0.74894567    -0.11400
C796        C  0.99691009  0.28441192  0.70951304    -0.13000
C797        C  0.88239508  0.40489129  0.39403643    -0.11400
C798        C  0.85935351  0.43133093  0.37314621    -0.13000
C799        C  0.85132953  0.43123764  0.61471167    -0.11400
C800        C  0.87656822  0.40382495  0.59851140    -0.13000
C801        C  0.13905566  0.44498712  0.60954403    -0.11400
C802        C  0.11342818  0.41698657  0.59222247    -0.13000
C803        C  0.09658480  0.41409891  0.39233957    -0.11400
C804        C  0.11984171  0.44222213  0.37355420    -0.13000
C805        C  0.12256164  0.08929530  0.62909785    -0.11400
C806        C  0.10558814  0.11797819  0.60607125    -0.13000
C807        C  0.88063452  0.07906645  0.64245955    -0.11400
C808        C  0.90034227  0.10647856  0.61788914    -0.13000
C809        C  0.88211572  0.08137135  0.35958715    -0.11400
C810        C  0.90000504  0.10821964  0.38513876    -0.13000
C811        C  0.10038223  0.11619914  0.38802218    -0.11400
C812        C  0.11941458  0.08941203  0.36399606    -0.13000
C813        C  0.98979095  0.74227950  0.28130566    -0.11400
C814        C  0.99139128  0.73129398  0.24187463    -0.13000
C815        C  0.99418363  0.73151512  0.70125828    -0.11400
C816        C  0.99642867  0.71867582  0.74012008    -0.13000
C817        C  0.11068568  0.61816833  0.39553667    -0.11400
C818        C  0.13579848  0.59075754  0.37913954    -0.13000
C819        C  0.12693334  0.59108835  0.61928097    -0.11400
C820        C  0.10387340  0.61736990  0.59813069    -0.13000
C821        C  0.86430192  0.58054402  0.61642496    -0.11400
C822        C  0.88681812  0.60885943  0.59708564    -0.13000
C823        C  0.84779859  0.57767438  0.38256402    -0.11400
C824        C  0.87279981  0.60585362  0.40039244    -0.13000
C825        C  0.08517374  0.91537225  0.37351236    -0.11400
C826        C  0.10440743  0.94301191  0.34896967    -0.13000
C827        C  0.88148854  0.90439428  0.38528144    -0.11400
C828        C  0.86330783  0.93286765  0.36308083    -0.13000
C829        C  0.86558869  0.93323206  0.62753255    -0.11400
C830        C  0.88576166  0.90682908  0.60387566    -0.13000
C831        C  0.08454179  0.91370610  0.60945107    -0.11400
C832        C  0.10260387  0.94060274  0.63499699    -0.13000
C833        C  0.19951522  0.79508282  0.49192084    -0.11400
C834        C  0.23901275  0.80614313  0.49274569    -0.13000
C835        C  0.38084619  0.73119778  0.46324943    -0.11400
C836        C  0.39396891  0.69322830  0.45621549    -0.13000
C837        C  0.20554466  0.24053982  0.49667130    -0.11400
C838        C  0.24447680  0.22821460  0.49674281    -0.13000
C839        C  0.42638558  0.31217279  0.47722169    -0.11400
C840        C  0.40444061  0.27773864  0.48288382    -0.13000
C841        C  0.70672389  0.30603058  0.99273356    -0.11400
C842        C  0.69667639  0.26634099  0.99334120    -0.13000
C843        C  0.77216426  0.12377163  0.96459779    -0.11400
C844        C  0.80962514  0.10900351  0.95808116    -0.13000
C845        C  0.26360186  0.29980919  0.00159225    -0.11400
C846        C  0.27697105  0.26119633  0.00146693    -0.13000
C847        C  0.19086247  0.08131936  0.97871617    -0.11400
C848        C  0.22586104  0.10243310  0.98445543    -0.13000
C849        C  0.74260164  0.79683481  0.49828965    -0.11400
C850        C  0.78088055  0.78281514  0.49621634    -0.13000
C851        C  0.58323521  0.74764382  0.51278061    -0.11400
C852        C  0.56201605  0.71257381  0.51682243    -0.13000
C853        C  0.71935200  0.72290753  0.99284332    -0.11400
C854        C  0.70574976  0.76132680  0.99464197    -0.13000
C855        C  0.75603994  0.92018505  0.01352154    -0.11400
C856        C  0.79085656  0.94188088  0.01776018    -0.13000
C857        C  0.27638774  0.71848078  0.00090283    -0.11400
C858        C  0.28720343  0.75797905  0.00197333    -0.13000
C859        C  0.17172820  0.91195566  0.03637963    -0.11400
C860        C  0.21000151  0.89882976  0.03120841    -0.13000
C861        C  0.28849774  0.01253753  0.27743213    -0.11400
C862        C  0.24914848  0.01243225  0.28907424    -0.13000
C863        C  0.70821735  0.01943540  0.26737580    -0.11400
C864        C  0.74746870  0.01813696  0.27826861    -0.13000
C865        C  0.39747677  0.90431526  0.39995307    -0.11400
C866        C  0.37717556  0.87995880  0.42615429    -0.13000
C867        C  0.59661567  0.90306912  0.39886493    -0.11400
C868        C  0.61411081  0.87806770  0.42600856    -0.13000
C869        C  0.37061199  0.14419493  0.42339474    -0.11400
C870        C  0.39155143  0.12235701  0.39634690    -0.13000
C871        C  0.49891613  0.26600498  0.21646528    -0.11400
C872        C  0.49965139  0.22677361  0.22794682    -0.13000
C873        C  0.49551876  0.76859937  0.20482027    -0.11400
C874        C  0.49540560  0.80730188  0.21856253    -0.13000
C875        C  0.61974711  0.10845888  0.09872769    -0.11400
C876        C  0.64477059  0.12512530  0.07019018    -0.13000
C877        C  0.62231622  0.88457607  0.07489222    -0.11400
C878        C  0.60113949  0.90579217  0.10238644    -0.13000
C879        C  0.35832137  0.89451513  0.07511192    -0.11400
C880        C  0.38278926  0.91421970  0.10183012    -0.13000
C881        C  0.38248320  0.11275986  0.09988265    -0.11400
C882        C  0.35710969  0.13073165  0.07326478    -0.13000
C883        C  0.74681219  0.21845114  0.50312596    -0.11400
C884        C  0.78668664  0.22800105  0.50193241    -0.13000
C885        C  0.60535052  0.16568743  0.42769058    -0.11400
C886        C  0.58941445  0.14060737  0.39876378    -0.13000
C887        C  0.60374139  0.29361534  0.53182677    -0.11400
C888        C  0.58940031  0.33142215  0.53721483    -0.13000
C889        C  0.23731525  0.00531932  0.71666274    -0.11400
C890        C  0.27648815  0.00494220  0.72826262    -0.13000
C891        C  0.73424623  0.01093867  0.70121374    -0.11400
C892        C  0.69558349  0.01124633  0.71520842    -0.13000
C893        C  0.38944781  0.12297673  0.59976893    -0.11400
C894        C  0.37220618  0.14828570  0.57265793    -0.13000
C895        C  0.58965733  0.12135502  0.60049624    -0.11400
C896        C  0.60992537  0.14552273  0.57398066    -0.13000
C897        C  0.61747590  0.88144087  0.57531192    -0.11400
C898        C  0.59591522  0.90325107  0.60207978    -0.13000
C899        C  0.37965606  0.85866026  0.57072521    -0.11400
C900        C  0.39564891  0.88434646  0.59916962    -0.13000
C901        C  0.49013302  0.21671826  0.77893447    -0.11400
C902        C  0.49019066  0.25568870  0.79152178    -0.13000
C903        C  0.48543148  0.75859599  0.77920363    -0.11400
C904        C  0.48441024  0.79788867  0.76824933    -0.13000
C905        C  0.38161439  0.11551146  0.89661878    -0.11400
C906        C  0.35997905  0.13623157  0.92410833    -0.13000
C907        C  0.33891056  0.90074228  0.92838266    -0.11400
C908        C  0.36363721  0.91707280  0.89938740    -0.13000
C909        C  0.60130742  0.91068257  0.89836587    -0.11400
C910        C  0.62609386  0.89253730  0.92529744    -0.13000
C911        C  0.62399760  0.12902946  0.92495028    -0.11400
C912        C  0.59965544  0.10908823  0.89850204    -0.13000
loop_ 
_geom_bond_atom_site_label_1 
_geom_bond_atom_site_label_2 
_geom_bond_distance 
_geom_bond_site_symmetry_2 
_ccdc_geom_bond_type 
O1          Zr37   2.437       .  S
O1           C12   1.290       .  A
O2          Zr36   2.449       .  S
O2           C13   1.293       .  A
O3           Zr9   2.443       .  S
O3           C14   1.291       .  A
O4           Zr9   2.435       .  S
O4           C15   1.290       .  A
O5          Zr39   2.450       .  S
O5           C15   1.293       .  A
O6          Zr38   2.457       .  S
O6           C14   1.294   1_565  A
O7           Zr9   2.430       .  S
O7           C13   1.289       .  A
O8           Zr9   2.430       .  S
O8           C12   1.289       .  A
Zr9          O10   2.344       .  S
Zr9          O11   2.343       .  S
Zr9          O19   2.336       .  S
Zr9          O17   2.330       .  S
O10         Zr36   2.353       .  S
O10         Zr39   2.338       .  S
O11         Zr37   2.354       .  S
O11         Zr38   2.337   1_545  S
C12         C912   1.428       .  S
C13         C895   1.434       .  S
C14         C892   1.441       .  S
C15         C901   1.433       .  S
H16          O17   0.964       .  S
O17         Zr36   2.325       .  S
O17         Zr38   2.337   1_545  S
H18          O19   0.964       .  S
O19         Zr37   2.327       .  S
O19         Zr39   2.340       .  S
O20         Zr36   2.455   1_565  S
O20          C43   1.294       .  A
O21         Zr37   2.449   1_565  S
O21          C44   1.293       .  A
O22         Zr38   2.422       .  S
O22          C45   1.288       .  A
O23         Zr39   2.431       .  S
O23          C46   1.289       .  A
O24         Zr39   2.426       .  S
O24          C47   1.288       .  A
O25         Zr38   2.430       .  S
O25          C48   1.289       .  A
O26         Zr40   2.426       .  S
O26          C49   1.289       .  A
O27         Zr40   2.425       .  S
O27          C50   1.288   1_565  A
O28         Zr38   2.441       .  S
O28          C49   1.291       .  A
O29         Zr39   2.444       .  S
O29          C50   1.292       .  A
O30         Zr36   2.458   1_565  S
O30          C45   1.295       .  A
O31         Zr37   2.455   1_565  S
O31          C48   1.294       .  A
O32         Zr37   2.450       .  S
O32          C47   1.293       .  A
O33         Zr36   2.459       .  S
O33          C46   1.295       .  A
O34         Zr40   2.457       .  S
O34          C43   1.294       .  A
O35         Zr40   2.461       .  S
O35          C44   1.295       .  A
Zr36         O42   2.347   1_545  S
Zr36         O54   2.336       .  S
Zr37         O41   2.346       .  S
Zr37         O52   2.334   1_545  S
Zr38         O42   2.340       .  S
Zr38         O52   2.354       .  S
Zr39         O41   2.339       .  S
Zr39         O54   2.351       .  S
Zr40         O41   2.337   1_565  S
Zr40         O42   2.339       .  S
Zr40         O54   2.352   1_565  S
Zr40         O52   2.351       .  S
C43         C900   1.451       .  S
C44         C908   1.450       .  S
C45         C898   1.434       .  S
C46         C893   1.440       .  S
C47         C905   1.431       .  S
C48         C909   1.437       .  S
C49         C904   1.426       .  S
C50         C890   1.427       .  S
H51          O52   0.966       .  S
H53          O54   0.965       .  S
C55          C56   1.536       .  S
C55          C61   1.520       .  S
C55          C59   1.530       .  S
C55         C883   1.459       .  S
C56          H63   1.086       .  S
C56          C57   1.367       .  D
C57          C58   1.537       .  S
C57         C896   1.441       .  S
C58          C62   1.551       .  S
C58          C60   1.551       .  S
C58          H64   1.111       .  S
C59          H65   1.087       .  S
C59          C60   1.364       .  D
C60         C885   1.454       .  S
C61          H66   1.088       .  S
C61          C62   1.354       .  D
C62         C887   1.445       .  S
O67        Zr103   2.460       .  S
O67          C78   1.295       .  A
O68        Zr102   2.431       .  S
O68          C79   1.289       .  A
O69         Zr75   2.446       .  S
O69          C80   1.292       .  A
O70         Zr75   2.454   1_565  S
O70          C81   1.294       .  A
O71        Zr105   2.430       .  S
O71          C81   1.289       .  A
O72        Zr104   2.421       .  S
O72          C80   1.287       .  A
O73         Zr75   2.441   1_565  S
O73          C79   1.291       .  A
O74         Zr75   2.449       .  S
O74          C78   1.293       .  A
Zr75         O76   2.352   1_545  S
Zr75         O77   2.346       .  S
Zr75         O85   2.334       .  S
Zr75         O83   2.329       .  S
O76        Zr102   2.343       .  S
O76        Zr105   2.336       .  S
O77        Zr103   2.336       .  S
O77        Zr104   2.340       .  S
C78         C886   1.449       .  S
C79         C865   1.431       .  S
C80         C870   1.427       .  S
C81         C867   1.437       .  S
H82          O83   0.964       .  S
O83        Zr102   2.334   1_545  S
O83        Zr104   2.341       .  S
H84          O85   0.965       .  S
O85        Zr103   2.352       .  S
O85        Zr105   2.354   1_545  S
O86        Zr102   2.431       .  S
O86         C109   1.290       .  A
O87        Zr103   2.453       .  S
O87         C110   1.294       .  A
O88        Zr104   2.452       .  S
O88         C111   1.293       .  A
O89        Zr105   2.454       .  S
O89         C112   1.293       .  A
O90        Zr105   2.437       .  S
O90         C113   1.291   1_565  A
O91        Zr104   2.444       .  S
O91         C114   1.292       .  A
O92        Zr106   2.459       .  S
O92         C115   1.295       .  A
O93        Zr106   2.454   1_565  S
O93         C116   1.294       .  A
O94        Zr104   2.431       .  S
O94         C115   1.289       .  A
O95        Zr105   2.423       .  S
O95         C116   1.288       .  A
O96        Zr102   2.437       .  S
O96         C111   1.290   1_565  A
O97        Zr103   2.431       .  S
O97         C114   1.289       .  A
O98        Zr103   2.426       .  S
O98         C113   1.288       .  A
O99        Zr102   2.441       .  S
O99         C112   1.291       .  A
O100       Zr106   2.447   1_565  S
O100        C109   1.293       .  A
O101       Zr106   2.455       .  S
O101        C110   1.294       .  A
Zr102       O108   2.343   1_565  S
Zr102       O120   2.332       .  S
Zr103       O107   2.342       .  S
Zr103       O118   2.351       .  S
Zr104       O108   2.335       .  S
Zr104       O118   2.350       .  S
Zr105       O107   2.341   1_565  S
Zr105       O120   2.337       .  S
Zr106       O107   2.348       .  S
Zr106       O108   2.351       .  S
Zr106       O120   2.327   1_545  S
Zr106       O118   2.336       .  S
C109        C880   1.434       .  S
C110        C875   1.449       .  S
C111        C861   1.437       .  S
C112        C874   1.439       .  S
C113        C863   1.423       .  S
C114        C872   1.430       .  S
C115        C881   1.441       .  S
C116        C878   1.432       .  S
H117        O118   0.965       .  S
H119        O120   0.964       .  S
C121        C122   1.530   1_554  S
C121        C127   1.518       .  S
C121        C125   1.536       .  S
C121        C858   1.455       .  S
C122        H129   1.087       .  S
C122        C123   1.364       .  D
C123        C124   1.552   1_556  S
C123        C907   1.454       .  S
C124        C128   1.552       .  S
C124        C126   1.539       .  S
C124        H130   1.111       .  S
C125        H131   1.086       .  S
C125        C126   1.367       .  D
C126        C879   1.441       .  S
C127        H132   1.088       .  S
C127        C128   1.352       .  D
C128        C860   1.442       .  S
C133        C134   1.542   1_556  S
C133        C139   1.527   1_556  S
C133        C137   1.537       .  S
C133        C854   1.471       .  S
C134        H141   1.086       .  S
C134        C135   1.369       .  D
C135        C136   1.529       .  S
C135        C877   1.437       .  S
C136        C140   1.533       .  S
C136        C138   1.535   1_554  S
C136        H142   1.112       .  S
C137        H143   1.086       .  S
C137        C138   1.367       .  D
C138        C910   1.443       .  S
C139        H144   1.087       .  S
C139        C140   1.359       .  D
C140        C855   1.435       .  S
C145        C146   1.537       .  S
C145        C151   1.525       .  S
C145        C149   1.544       .  S
C145        C849   1.472       .  S
C146        H153   1.086       .  S
C146        C147   1.366       .  D
C147        C148   1.535       .  S
C147        C868   1.443       .  S
C148        C152   1.533       .  S
C148        C150   1.529       .  S
C148        H154   1.112       .  S
C149        H155   1.086       .  S
C149        C150   1.371       .  D
C150        C897   1.440       .  S
C151        H156   1.088       .  S
C151        C152   1.358       .  D
C152        C851   1.434       .  S
C157        C158   1.539       .  S
C157        C163   1.527   1_554  S
C157        C161   1.541   1_554  S
C157        C846   1.474       .  S
C158        H165   1.086       .  S
C158        C159   1.369       .  D
C159        C160   1.537   1_554  S
C159        C882   1.448       .  S
C160        C164   1.535       .  S
C160        C162   1.529       .  S
C160        H166   1.112       .  S
C161        H167   1.086       .  S
C161        C162   1.368       .  D
C162        C906   1.437       .  S
C163        H168   1.087       .  S
C163        C164   1.359       .  D
C164        C848   1.437       .  S
C169        C170   1.533       .  S
C169        C175   1.520       .  S
C169        C173   1.532   1_556  S
C169        C842   1.455       .  S
C170        H177   1.087       .  S
C170        C171   1.365       .  D
C171        C172   1.535       .  S
C171        C911   1.434       .  S
C172        C176   1.550       .  S
C172        C174   1.550   1_556  S
C172        H178   1.111       .  S
C173        H179   1.087       .  S
C173        C174   1.365       .  D
C174        C876   1.454       .  S
C175        H180   1.088       .  S
C175        C176   1.354       .  D
C176        C843   1.444       .  S
C181        C182   1.539       .  S
C181        C187   1.528       .  S
C181        C185   1.538       .  S
C181        C838   1.471       .  S
C182        H189   1.086       .  S
C182        C183   1.367       .  D
C183        C184   1.528       .  S
C183        C869   1.433       .  S
C184        C188   1.533       .  S
C184        C186   1.536       .  S
C184        H190   1.112       .  S
C185        H191   1.086       .  S
C185        C186   1.367       .  D
C186        C894   1.446       .  S
C187        H192   1.087       .  S
C187        C188   1.360       .  D
C188        C840   1.436       .  S
C193        C194   1.532       .  S
C193        C199   1.517       .  S
C193        C197   1.535       .  S
C193        C834   1.457       .  S
C194        H201   1.087       .  S
C194        C195   1.366       .  D
C195        C196   1.552       .  S
C195        C899   1.457       .  S
C196        C200   1.552       .  S
C196        C198   1.535       .  S
C196        H202   1.111       .  S
C197        H203   1.086       .  S
C197        C198   1.366       .  D
C198        C866   1.437       .  S
C199        H204   1.088       .  S
C199        C200   1.351       .  D
C200        C835   1.443       .  S
O205       Zr241   2.454       .  S
O205        C216   1.294       .  A
O206       Zr240   2.438       .  S
O206        C217   1.290   1_455  A
O207       Zr213   2.423       .  S
O207        C218   1.288       .  A
O208       Zr213   2.435       .  S
O208        C219   1.290       .  A
O209       Zr243   2.454       .  S
O209        C219   1.294       .  A
O210       Zr242   2.432       .  S
O210        C218   1.290       .  A
O211       Zr213   2.444       .  S
O211        C217   1.292       .  A
O212       Zr213   2.439       .  S
O212        C216   1.291       .  A
Zr213       O214   2.338       .  S
Zr213       O215   2.345       .  S
Zr213       O223   2.335       .  S
Zr213       O221   2.336       .  S
O214       Zr240   2.338   1_655  S
O214       Zr243   2.352       .  S
O215       Zr241   2.335       .  S
O215       Zr242   2.351       .  S
C216        C850   1.438       .  S
C217        C815   1.433       .  S
C218        C822   1.422       .  S
C219        C830   1.439       .  S
H220        O221   0.964       .  S
O221       Zr240   2.332   1_655  S
O221       Zr242   2.327       .  S
H222        O223   0.965       .  S
O223       Zr241   2.345       .  S
O223       Zr243   2.332       .  S
O224       Zr240   2.426       .  S
O224        C247   1.288       .  A
O225       Zr241   2.450       .  S
O225        C248   1.293       .  A
O226       Zr242   2.460   1_455  S
O226        C249   1.295       .  A
O227       Zr243   2.451   1_455  S
O227        C250   1.293       .  A
O228       Zr243   2.431       .  S
O228        C251   1.290       .  A
O229       Zr242   2.464       .  S
O229        C252   1.296       .  A
O230       Zr244   2.437       .  S
O230        C253   1.290       .  A
O231       Zr244   2.449       .  S
O231        C254   1.292       .  A
O232       Zr242   2.444   1_455  S
O232        C253   1.292       .  A
O233       Zr243   2.475   1_455  S
O233        C254   1.298       .  A
O234       Zr240   2.437       .  S
O234        C249   1.290       .  A
O235       Zr241   2.448       .  S
O235        C252   1.292       .  A
O236       Zr241   2.421       .  S
O236        C251   1.288       .  A
O237       Zr240   2.430       .  S
O237        C250   1.289       .  A
O238       Zr244   2.441       .  S
O238        C247   1.291       .  A
O239       Zr244   2.434       .  S
O239        C248   1.290   1_455  A
Zr240       O246   2.341       .  S
Zr240       O258   2.350       .  S
Zr241       O245   2.349       .  S
Zr241       O256   2.348       .  S
Zr242       O246   2.349   1_655  S
Zr242       O256   2.335       .  S
Zr243       O245   2.349       .  S
Zr243       O258   2.326   1_655  S
Zr244       O245   2.336   1_455  S
Zr244       O246   2.342       .  S
Zr244       O258   2.346       .  S
Zr244       O256   2.356   1_455  S
C247        C833   1.425       .  S
C248        C813   1.433       .  S
C249        C820   1.443       .  S
C250        C831   1.436       .  S
C251        C827   1.419       .  S
C252        C824   1.452       .  S
C253        C817   1.435       .  S
C254        C825   1.457       .  S
H255        O256   0.965       .  S
H257        O258   0.965       .  S
O259       Zr295   2.428       .  S
O259        C270   1.289       .  A
O260       Zr294   2.441       .  S
O260        C271   1.291   1_455  A
O261       Zr267   2.454       .  S
O261        C272   1.293       .  A
O262       Zr267   2.437       .  S
O262        C273   1.291       .  A
O263       Zr297   2.449       .  S
O263        C273   1.293       .  A
O264       Zr296   2.481       .  S
O264        C272   1.299       .  A
O265       Zr267   2.425       .  S
O265        C271   1.288       .  A
O266       Zr267   2.431       .  S
O266        C270   1.289       .  A
Zr267       O268   2.350       .  S
Zr267       O269   2.338       .  S
Zr267       O277   2.343       .  S
Zr267       O275   2.335       .  S
O268       Zr294   2.341   1_655  S
O268       Zr297   2.339       .  S
O269       Zr295   2.344       .  S
O269       Zr296   2.334       .  S
C270        C884   1.426       .  S
C271        C796   1.429       .  S
C272        C808   1.461       .  S
C273        C800   1.435       .  S
H274        O275   0.966       .  S
O275       Zr294   2.349   1_655  S
O275       Zr296   2.353       .  S
H276        O277   0.966       .  S
O277       Zr295   2.337       .  S
O277       Zr297   2.356       .  S
O278       Zr294   2.440       .  S
O278        C301   1.290       .  A
O279       Zr295   2.435       .  S
O279        C302   1.289       .  A
O280       Zr296   2.431   1_455  S
O280        C303   1.290       .  A
O281       Zr297   2.472   1_455  S
O281        C304   1.297       .  A
O282       Zr297   2.457       .  S
O282        C305   1.295       .  A
O283       Zr296   2.447       .  S
O283        C306   1.293       .  A
O284       Zr298   2.433       .  S
O284        C307   1.290       .  A
O285       Zr298   2.424       .  S
O285        C308   1.288       .  A
O286       Zr296   2.452   1_455  S
O286        C307   1.294       .  A
O287       Zr297   2.433   1_455  S
O287        C308   1.290       .  A
O288       Zr294   2.428       .  S
O288        C303   1.289       .  A
O289       Zr295   2.430       .  S
O289        C306   1.289       .  A
O290       Zr295   2.436       .  S
O290        C305   1.290       .  A
O291       Zr294   2.451       .  S
O291        C304   1.293       .  A
O292       Zr298   2.442       .  S
O292        C301   1.291       .  A
O293       Zr298   2.440       .  S
O293        C302   1.290   1_455  A
Zr294       O300   2.337       .  S
Zr294       O312   2.335       .  S
Zr295       O299   2.326       .  S
Zr295       O310   2.339       .  S
Zr296       O300   2.340   1_655  S
Zr296       O310   2.361       .  S
Zr297       O299   2.334       .  S
Zr297       O312   2.357   1_655  S
Zr298       O299   2.330   1_455  S
Zr298       O300   2.330       .  S
Zr298       O312   2.340       .  S
Zr298       O310   2.338   1_455  S
C301        C837   1.438       .  S
C302        C793   1.435       .  S
C303        C806   1.422       .  S
C304        C802   1.454       .  S
C305        C797   1.440       .  S
C306        C810   1.431       .  S
C307        C811   1.435       .  S
C308        C803   1.422       .  S
H309        O310   0.965       .  S
H311        O312   0.965       .  S
C313        C314   1.534       .  S
C313        C319   1.526       .  S
C313        C317   1.534       .  S
C313        C789   1.460       .  S
C314        H321   1.087       .  S
C314        C315   1.365       .  D
C315        C316   1.538       .  S
C315        C799   1.442       .  S
C316        C320   1.535       .  S
C316        C318   1.529       .  S
C316        H322   1.112       .  S
C317        H323   1.087       .  S
C317        C318   1.363       .  D
C318        C821   1.428       .  S
C319        H324   1.087       .  S
C319        C320   1.360       .  D
C320        C791   1.437       .  S
C325        C326   1.544       .  S
C325        C331   1.520       .  S
C325        C329   1.535       .  S
C325        C785   1.472       .  S
C326        H333   1.086       .  S
C326        C327   1.372       .  D
C327        C328   1.536       .  S
C327        C819   1.448       .  S
C328        C332   1.550       .  S
C328        C330   1.550       .  S
C328        H334   1.111       .  S
C329        H335   1.087       .  S
C329        C330   1.367       .  D
C330        C801   1.459       .  S
C331        H336   1.088       .  S
C331        C332   1.353       .  D
C332        C788   1.445       .  S
C337        C338   1.534   1_545  S
C337        C343   1.526       .  S
C337        C341   1.532       .  S
C337        C864   1.455       .  S
C338        H345   1.087       .  S
C338        C339   1.362       .  D
C339        C340   1.529   1_565  S
C339        C828   1.425       .  S
C340        C344   1.533       .  S
C340        C342   1.535       .  S
C340        H346   1.112       .  S
C341        H347   1.087       .  S
C341        C342   1.364       .  D
C342        C809   1.437       .  S
C343        H348   1.087       .  S
C343        C344   1.360       .  D
C344        C784   1.433   1_545  S
C349        C350   1.540       .  S
C349        C355   1.518   1_545  S
C349        C353   1.542   1_545  S
C349        C891   1.473       .  S
C350        H357   1.086       .  S
C350        C351   1.372       .  D
C351        C352   1.551   1_545  S
C351        C807   1.466       .  S
C352        C356   1.552       .  S
C352        C354   1.536       .  S
C352        H358   1.111       .  S
C353        H359   1.086       .  S
C353        C354   1.371       .  D
C354        C829   1.446       .  S
C355        H360   1.089       .  S
C355        C356   1.351       .  D
C356        C781   1.446       .  S
C361        C362   1.533       .  S
C361        C367   1.520       .  S
C361        C365   1.541       .  S
C361        C777   1.466       .  S
C362        H369   1.087       .  S
C362        C363   1.366       .  D
C363        C364   1.550       .  S
C363        C823   1.457       .  S
C364        C368   1.552       .  S
C364        C366   1.538       .  S
C364        H370   1.111       .  S
C365        H371   1.086       .  S
C365        C366   1.370       .  D
C366        C798   1.447       .  S
C367        H372   1.088       .  S
C367        C368   1.353       .  D
C368        C779   1.447       .  S
C373        C374   1.534       .  S
C373        C379   1.527       .  S
C373        C377   1.535       .  S
C373        C773   1.461       .  S
C374        H381   1.087       .  S
C374        C375   1.363       .  D
C375        C376   1.530       .  S
C375        C804   1.429       .  S
C376        C380   1.536       .  S
C376        C378   1.537       .  S
C376        H382   1.112       .  S
C377        H383   1.086       .  S
C377        C378   1.366       .  D
C378        C818   1.441       .  S
C379        H384   1.087       .  S
C379        C380   1.360       .  D
C380        C775   1.438       .  S
C385        C386   1.538       .  S
C385        C391   1.521       .  S
C385        C389   1.539   1_545  S
C385        C862   1.469       .  S
C386        H393   1.086       .  S
C386        C387   1.367       .  D
C387        C388   1.536       .  S
C387        C812   1.441       .  S
C388        C392   1.550       .  S
C388        C390   1.550   1_545  S
C388        H394   1.111       .  S
C389        H395   1.086       .  S
C389        C390   1.370       .  D
C390        C826   1.462       .  S
C391        H396   1.088       .  S
C391        C392   1.354       .  D
C392        C771   1.446       .  S
C397        C398   1.535   1_545  S
C397        C403   1.526       .  S
C397        C401   1.533       .  S
C397        C889   1.459       .  S
C398        H405   1.086       .  S
C398        C399   1.366       .  D
C399        C400   1.537   1_565  S
C399        C832   1.442       .  S
C400        C404   1.535       .  S
C400        C402   1.531       .  S
C400        H406   1.112       .  S
C401        H407   1.087       .  S
C401        C402   1.362       .  D
C402        C805   1.429       .  S
C403        H408   1.087       .  S
C403        C404   1.360       .  D
C404        C770   1.435       .  S
O409       Zr445   2.443       .  S
O409        C420   1.291       .  A
O410       Zr444   2.432       .  S
O410        C421   1.289       .  A
O411       Zr417   2.434       .  S
O411        C422   1.290       .  A
O412       Zr417   2.423       .  S
O412        C423   1.288       .  A
O413       Zr447   2.436   1_554  S
O413        C423   1.291       .  A
O414       Zr446   2.456   1_554  S
O414        C422   1.294       .  A
O415       Zr417   2.438       .  S
O415        C421   1.290       .  A
O416       Zr417   2.438       .  S
O416        C420   1.290   1_554  A
Zr417       O418   2.329       .  S
Zr417       O419   2.329   1_554  S
Zr417       O427   2.341   1_554  S
Zr417       O425   2.337       .  S
O418       Zr444   2.324       .  S
O418       Zr447   2.333   1_554  S
O419       Zr445   2.337       .  S
O419       Zr446   2.339       .  S
C420        C853   1.438       .  S
C421        C778   1.434       .  S
C422        C755   1.438       .  S
C423        C768   1.423       .  S
H424        O425   0.965       .  S
O425       Zr444   2.337       .  S
O425       Zr446   2.360   1_554  S
H426        O427   0.965       .  S
O427       Zr445   2.336       .  S
O427       Zr447   2.359       .  S
O428       Zr444   2.420       .  S
O428        C451   1.287   1_554  A
O429       Zr445   2.441       .  S
O429        C452   1.291       .  A
O430       Zr446   2.455   1_554  S
O430        C453   1.294       .  A
O431       Zr447   2.457   1_554  S
O431        C454   1.294       .  A
O432       Zr447   2.468       .  S
O432        C455   1.297       .  A
O433       Zr446   2.436       .  S
O433        C456   1.291       .  A
O434       Zr448   2.452       .  S
O434        C457   1.293       .  A
O435       Zr448   2.443       .  S
O435        C458   1.292       .  A
O436       Zr446   2.475       .  S
O436        C457   1.298       .  A
O437       Zr447   2.452       .  S
O437        C458   1.294       .  A
O438       Zr444   2.431       .  S
O438        C453   1.289       .  A
O439       Zr445   2.427       .  S
O439        C456   1.289       .  A
O440       Zr445   2.450       .  S
O440        C455   1.293       .  A
O441       Zr444   2.434       .  S
O441        C454   1.290       .  A
O442       Zr448   2.432       .  S
O442        C451   1.289       .  A
O443       Zr448   2.423       .  S
O443        C452   1.287       .  A
Zr444       O450   2.341   1_554  S
Zr444       O462   2.338   1_554  S
Zr445       O449   2.342       .  S
Zr445       O460   2.347       .  S
Zr446       O450   2.334       .  S
Zr446       O460   2.357       .  S
Zr447       O449   2.339       .  S
Zr447       O462   2.356       .  S
Zr448       O449   2.349       .  S
Zr448       O450   2.338       .  S
Zr448       O462   2.342       .  S
Zr448       O460   2.338       .  S
C451        C841   1.423       .  S
C452        C790   1.427       .  S
C453        C754   1.436       .  S
C454        C762   1.439       .  S
C455        C765   1.451       .  S
C456        C757   1.424       .  S
C457        C759   1.456       .  S
C458        C763   1.439       .  S
H459        O460   0.965       .  S
H461        O462   0.966       .  S
O463       Zr499   2.432       .  S
O463        C474   1.289   1_556  A
O464       Zr498   2.445       .  S
O464        C475   1.292       .  A
O465       Zr471   2.436       .  S
O465        C476   1.290       .  A
O466       Zr471   2.454       .  S
O466        C477   1.293       .  A
O467       Zr501   2.474       .  S
O467        C477   1.298       .  A
O468       Zr500   2.449       .  S
O468        C476   1.293       .  A
O469       Zr471   2.427       .  S
O469        C475   1.288       .  A
O470       Zr471   2.431       .  S
O470        C474   1.289       .  A
Zr471       O472   2.335       .  S
Zr471       O473   2.344       .  S
Zr471       O481   2.343       .  S
Zr471       O479   2.355       .  S
O472       Zr498   2.348       .  S
O472       Zr501   2.349       .  S
O473       Zr499   2.341   1_554  S
O473       Zr500   2.350       .  S
C474        C857   1.423       .  S
C475        C774   1.428       .  S
C476        C741   1.437       .  S
C477        C750   1.459       .  S
H478        O479   0.965       .  S
O479       Zr498   2.346       .  S
O479       Zr500   2.335       .  S
H480        O481   0.965       .  S
O481       Zr499   2.351   1_554  S
O481       Zr501   2.325       .  S
O482       Zr498   2.446       .  S
O482        C505   1.292       .  A
O483       Zr499   2.445       .  S
O483        C506   1.292       .  A
O484       Zr500   2.467       .  S
O484        C507   1.296       .  A
O485       Zr501   2.435       .  S
O485        C508   1.291       .  A
O486       Zr501   2.450   1_556  S
O486        C509   1.293       .  A
O487       Zr500   2.460   1_556  S
O487        C510   1.295       .  A
O488       Zr502   2.421       .  S
O488        C511   1.288       .  A
O489       Zr502   2.429       .  S
O489        C512   1.289       .  A
O490       Zr500   2.437   1_556  S
O490        C511   1.291       .  A
O491       Zr501   2.448   1_556  S
O491        C512   1.293       .  A
O492       Zr498   2.449       .  S
O492        C507   1.293       .  A
O493       Zr499   2.434       .  S
O493        C510   1.290       .  A
O494       Zr499   2.427       .  S
O494        C509   1.288       .  A
O495       Zr498   2.425       .  S
O495        C508   1.288       .  A
O496       Zr502   2.453       .  S
O496        C505   1.293   1_556  A
O497       Zr502   2.451       .  S
O497        C506   1.293       .  A
Zr498       O504   2.335       .  S
Zr498       O516   2.345       .  S
Zr499       O503   2.338       .  S
Zr499       O514   2.333       .  S
Zr500       O504   2.352       .  S
Zr500       O514   2.329   1_554  S
Zr501       O503   2.354   1_554  S
Zr501       O516   2.333       .  S
Zr502       O503   2.341       .  S
Zr502       O504   2.343   1_556  S
Zr502       O516   2.336   1_556  S
Zr502       O514   2.339       .  S
C505        C845   1.441       .  S
C506        C786   1.440       .  S
C507        C739   1.454       .  S
C508        C752   1.423       .  S
C509        C748   1.434       .  S
C510        C743   1.441       .  S
C511        C738   1.423       .  S
C512        C746   1.433       .  S
H513        O514   0.964       .  S
H515        O516   0.965       .  S
C517        C518   1.543   1_655  S
C517        C523   1.518   1_655  S
C517        C521   1.533       .  S
C517        C816   1.466       .  S
C518        H525   1.086       .  S
C518        C519   1.371       .  D
C519        C520   1.536       .  S
C519        C744   1.446       .  S
C520        C524   1.550       .  S
C520        C522   1.550   1_455  S
C520        H526   1.111       .  S
C521        H527   1.087       .  S
C521        C522   1.366       .  D
C522        C766   1.456       .  S
C523        H528   1.088       .  S
C523        C524   1.352       .  D
C524        C735   1.443       .  S
C529        C530   1.536       .  S
C529        C535   1.527       .  S
C529        C533   1.534   1_655  S
C529        C795   1.463       .  S
C530        H537   1.086       .  S
C530        C531   1.366       .  D
C531        C532   1.538       .  S
C531        C764   1.444       .  S
C532        C536   1.536       .  S
C532        C534   1.529   1_655  S
C532        H538   1.112       .  S
C533        H539   1.087       .  S
C533        C534   1.363       .  D
C534        C737   1.429       .  S
C535        H540   1.087   1_655  S
C535        C536   1.361       .  D
C536        C734   1.438   1_655  S
C541        C542   1.534       .  S
C541        C547   1.526       .  S
C541        C545   1.535       .  S
C541        C903   1.459       .  S
C542        H549   1.087       .  S
C542        C543   1.365       .  D
C543        C544   1.536       .  S
C543        C747   1.440       .  S
C544        C548   1.534       .  S
C544        C546   1.530       .  S
C544        H550   1.112       .  S
C545        H551   1.087       .  S
C545        C546   1.363       .  D
C546        C758   1.430       .  S
C547        H552   1.087       .  S
C547        C548   1.360       .  D
C548        C731   1.434       .  S
C553        C554   1.540       .  S
C553        C559   1.518       .  S
C553        C557   1.539       .  S
C553        C873   1.471       .  S
C554        H561   1.086       .  S
C554        C555   1.369       .  D
C555        C556   1.537       .  S
C555        C756   1.444       .  S
C556        C560   1.550       .  S
C556        C558   1.551       .  S
C556        H562   1.111       .  S
C557        H563   1.086       .  S
C557        C558   1.371       .  D
C558        C749   1.464       .  S
C559        H564   1.088       .  S
C559        C560   1.352       .  D
C560        C730   1.445       .  S
C565        C566   1.534   1_655  S
C565        C571   1.518       .  S
C565        C569   1.541       .  S
C565        C794   1.466       .  S
C566        H573   1.087       .  S
C566        C567   1.367       .  D
C567        C568   1.552   1_455  S
C567        C740   1.459       .  S
C568        C572   1.553       .  S
C568        C570   1.537       .  S
C568        H574   1.111       .  S
C569        H575   1.086       .  S
C569        C570   1.371       .  D
C570        C761   1.445       .  S
C571        H576   1.088       .  S
C571        C572   1.352       .  D
C572        C727   1.446       .  S
C577        C578   1.535       .  S
C577        C583   1.528       .  S
C577        C581   1.537   1_655  S
C577        C814   1.466       .  S
C578        H585   1.087       .  S
C578        C579   1.364       .  D
C579        C580   1.529       .  S
C579        C767   1.430       .  S
C580        C584   1.535       .  S
C580        C582   1.537   1_655  S
C580        H586   1.112       .  S
C581        H587   1.086       .  S
C581        C582   1.366       .  D
C582        C742   1.443       .  S
C583        H588   1.087       .  S
C583        C584   1.361       .  D
C584        C725   1.438       .  S
C589        C590   1.537       .  S
C589        C595   1.518       .  S
C589        C593   1.538       .  S
C589        C902   1.465       .  S
C590        H597   1.086       .  S
C590        C591   1.369       .  D
C591        C592   1.551       .  S
C591        C760   1.462       .  S
C592        C596   1.551       .  S
C592        C594   1.536       .  S
C592        H598   1.111       .  S
C593        H599   1.086       .  S
C593        C594   1.367       .  D
C594        C745   1.440       .  S
C595        H600   1.088       .  S
C595        C596   1.351       .  D
C596        C723   1.445       .  S
C601        C602   1.535       .  S
C601        C607   1.528       .  S
C601        C605   1.536       .  S
C601        C871   1.463       .  S
C602        H609   1.087       .  S
C602        C603   1.363       .  D
C603        C604   1.529       .  S
C603        C751   1.429       .  S
C604        C608   1.533       .  S
C604        C606   1.536       .  S
C604        H610   1.112       .  S
C605        H611   1.086       .  S
C605        C606   1.366       .  D
C606        C753   1.442       .  S
C607        H612   1.087       .  S
C607        C608   1.361       .  D
C608        C721   1.436       .  S
O613       Zr649   2.489       .  S
O613        C624   1.300       .  A
O614       Zr648   2.450       .  S
O614        C625   1.293       .  A
O615       Zr621   2.450       .  S
O615        C626   1.293       .  A
O616       Zr621   2.499       .  S
O616        C627   1.302       .  A
O617       Zr651   2.392       .  S
O617        C627   1.282       .  A
O618       Zr650   2.411       .  S
O618        C626   1.286       .  A
O619       Zr621   2.412       .  S
O619        C625   1.286       .  A
O620       Zr621   2.387       .  S
O620        C624   1.281       .  A
Zr621       O622   2.323       .  S
Zr621       O623   2.342       .  S
Zr621       O631   2.328       .  S
Zr621       O629   2.356       .  S
O622       Zr648   2.343       .  S
O622       Zr651   2.328       .  S
O623       Zr649   2.325       .  S
O623       Zr650   2.325       .  S
C624        C888   1.436       .  S
C625        C722   1.428       .  S
C626        C839   1.427       .  S
C627        C780   1.439       .  S
H628        O629   0.967       .  S
O629       Zr648   2.353       .  S
O629       Zr650   2.355       .  S
H630        O631   0.964       .  S
O631       Zr649   2.327       .  S
O631       Zr651   2.346       .  S
O632       Zr648   2.495       .  S
O632        C655   1.301       .  A
O633       Zr649   2.449       .  S
O633        C656   1.292       .  A
O634       Zr650   2.453       .  S
O634        C657   1.293       .  A
O635       Zr651   2.494       .  S
O635        C658   1.301       .  A
O636       Zr651   2.457       .  S
O636        C659   1.294       .  A
O637       Zr650   2.497       .  S
O637        C660   1.302       .  A
O638       Zr652   2.491       .  S
O638        C661   1.300       .  A
O639       Zr652   2.447       .  S
O639        C662   1.292       .  A
O640       Zr650   2.388       .  S
O640        C661   1.281       .  A
O641       Zr651   2.422       .  S
O641        C662   1.289       .  A
O642       Zr648   2.417       .  S
O642        C657   1.287       .  A
O643       Zr649   2.389       .  S
O643        C660   1.281       .  A
O644       Zr649   2.416       .  S
O644        C659   1.287       .  A
O645       Zr648   2.384       .  S
O645        C658   1.280       .  A
O646       Zr652   2.384       .  S
O646        C655   1.280       .  A
O647       Zr652   2.417       .  S
O647        C656   1.288       .  A
Zr648       O654   2.323       .  S
Zr648       O666   2.330       .  S
Zr649       O653   2.350       .  S
Zr649       O664   2.346       .  S
Zr650       O654   2.341       .  S
Zr650       O664   2.329       .  S
Zr651       O653   2.351       .  S
Zr651       O666   2.327       .  S
Zr652       O653   2.350       .  S
Zr652       O654   2.326       .  S
Zr652       O666   2.345       .  S
Zr652       O664   2.324       .  S
C655        C836   1.433       .  S
C656        C732   1.426       .  S
C657        C776   1.430       .  S
C658        C729   1.436       .  S
C659        C792   1.429       .  S
C660        C724   1.436       .  S
C661        C787   1.437       .  S
C662        C852   1.427       .  S
H663        O664   0.964       .  S
H665        O666   0.964       .  S
O667       Zr703   2.490       .  S
O667        C678   1.300       .  A
O668       Zr702   2.450   1_455  S
O668        C679   1.292       .  A
O669       Zr675   2.489       .  S
O669        C680   1.300       .  A
O670       Zr675   2.456   1_545  S
O670        C681   1.294       .  A
O671       Zr705   2.417       .  S
O671        C681   1.288   1_554  A
O672       Zr704   2.387       .  S
O672        C680   1.281   1_655  A
O673       Zr675   2.421   1_545  S
O673        C679   1.289       .  A
O674       Zr675   2.390       .  S
O674        C678   1.281   1_556  A
Zr675       O676   2.348   1_565  S
Zr675       O677   2.327       .  S
Zr675       O685   2.344   1_566  S
Zr675       O683   2.329   1_455  S
O676       Zr702   2.351   1_455  S
O676       Zr705   2.350   1_556  S
O677       Zr703   2.321   1_556  S
O677       Zr704   2.342   1_455  S
C678        C859   1.434       .  S
C679        C769   1.428       .  S
C680        C736   1.435       .  S
C681        C847   1.430       .  S
H682        O683   0.964       .  S
O683       Zr702   2.345   1_565  S
O683       Zr704   2.331       .  S
H684        O685   0.964       .  S
O685       Zr703   2.329   1_545  S
O685       Zr705   2.325       .  S
O686       Zr702   2.493       .  S
O686        C709   1.301       .  A
O687       Zr703   2.444   1_655  S
O687        C710   1.291       .  A
O688       Zr704   2.499       .  S
O688        C711   1.302       .  A
O689       Zr705   2.459   1_556  S
O689        C712   1.294       .  A
O690       Zr705   2.495       .  S
O690        C713   1.301       .  A
O691       Zr704   2.455   1_554  S
O691        C714   1.294       .  A
O692       Zr706   2.450   1_565  S
O692        C715   1.293       .  A
O693       Zr706   2.503       .  S
O693        C716   1.303       .  A
O694       Zr704   2.417       .  S
O694        C715   1.288   1_556  A
O695       Zr705   2.386       .  S
O695        C716   1.281   1_455  A
O696       Zr702   2.389       .  S
O696        C711   1.281   1_545  A
O697       Zr703   2.413   1_655  S
O697        C714   1.286       .  A
O698       Zr703   2.385   1_545  S
O698        C713   1.281       .  A
O699       Zr702   2.413       .  S
O699        C712   1.287   1_655  A
O700       Zr706   2.383       .  S
O700        C709   1.280   1_554  A
O701       Zr706   2.415       .  S
O701        C710   1.287   1_545  A
Zr702       O708   2.327       .  S
Zr702       O720   2.324       .  S
Zr703       O707   2.344   1_465  S
Zr703       O718   2.352   1_455  S
Zr704       O708   2.327   1_565  S
Zr704       O718   2.355   1_556  S
Zr705       O707   2.329   1_455  S
Zr705       O720   2.345   1_454  S
Zr706       O707   2.323       .  S
Zr706       O708   2.346   1_554  S
Zr706       O720   2.328   1_554  S
Zr706       O718   2.355   1_545  S
C709        C844   1.435       .  S
C710        C783   1.426       .  S
C711        C782   1.437       .  S
C712        C733   1.430       .  S
C713        C772   1.437       .  S
C714        C726   1.430       .  S
C715        C856   1.428       .  S
C716        C728   1.437       .  S
H717        O718   0.967       .  S
H719        O720   0.964       .  S
C721        C722   1.202       .  T
C723        C724   1.209       .  T
C725        C726   1.204       .  T
C727        C728   1.210       .  T
C729        C730   1.209       .  T
C731        C732   1.201       .  T
C733        C734   1.203       .  T
C735        C736   1.208       .  T
C737        C738   1.198       .  T
C739        C740   1.217       .  T
C741        C742   1.207       .  T
C743        C744   1.209       .  T
C745        C746   1.205       .  T
C747        C748   1.205       .  T
C749        C750   1.220       .  T
C751        C752   1.199       .  T
C753        C754   1.206       .  T
C755        C756   1.208       .  T
C757        C758   1.199       .  T
C759        C760   1.218       .  T
C761        C762   1.208       .  T
C763        C764   1.208       .  T
C765        C766   1.215       .  T
C767        C768   1.199       .  T
C769        C770   1.202       .  T
C771        C772   1.209       .  T
C773        C774   1.202       .  T
C775        C776   1.203       .  T
C777        C778   1.205       .  T
C779        C780   1.210       .  T
C781        C782   1.210       .  T
C783        C784   1.201       .  T
C785        C786   1.209       .  T
C787        C788   1.209       .  T
C789        C790   1.202       .  T
C791        C792   1.203       .  T
C793        C794   1.206       .  T
C795        C796   1.203       .  T
C797        C798   1.209       .  T
C799        C800   1.206       .  T
C801        C802   1.217       .  T
C803        C804   1.198       .  T
C805        C806   1.198       .  T
C807        C808   1.221       .  T
C809        C810   1.203       .  T
C811        C812   1.206       .  T
C813        C814   1.205       .  T
C815        C816   1.206       .  T
C817        C818   1.206       .  T
C819        C820   1.210       .  T
C821        C822   1.198       .  T
C823        C824   1.216       .  T
C825        C826   1.218       .  T
C827        C828   1.196       .  T
C829        C830   1.208       .  T
C831        C832   1.206       .  T
C833        C834   1.200       .  T
C835        C836   1.208       .  T
C837        C838   1.208       .  T
C839        C840   1.202       .  T
C841        C842   1.199       .  T
C843        C844   1.208       .  T
C845        C846   1.210       .  T
C847        C848   1.203       .  T
C849        C850   1.208       .  T
C851        C852   1.201       .  T
C853        C854   1.208       .  T
C855        C856   1.202       .  T
C857        C858   1.199       .  T
C859        C860   1.207       .  T
C861        C862   1.207       .  T
C863        C864   1.199       .  T
C865        C866   1.203       .  T
C867        C868   1.207       .  T
C869        C870   1.201       .  T
C871        C872   1.203       .  T
C873        C874   1.209       .  T
C875        C876   1.214       .  T
C877        C878   1.204       .  T
C879        C880   1.205       .  T
C881        C882   1.210       .  T
C883        C884   1.201       .  T
C885        C886   1.214       .  T
C887        C888   1.208       .  T
C889        C890   1.201       .  T
C891        C892   1.210       .  T
C893        C894   1.209       .  T
C895        C896   1.205       .  T
C897        C898   1.205       .  T
C899        C900   1.215       .  T
C901        C902   1.205       .  T
C903        C904   1.201       .  T
C905        C906   1.203       .  T
C907        C908   1.214       .  T
C909        C910   1.207       .  T
C911        C912   1.201       .  T
