geometry optimzed in LAMMPS
_audit_creation_date              2020-11-30 
_audit_creation_method            'lammps2cif' 
_symmetry_space_group_name_H-M    'P1' 
_symmetry_Int_Tables_number       1 
_symmetry_cell_setting            triclinic 
loop_ 
_symmetry_equiv_pos_as_xyz 
  x,y,z 
_cell_length_a                    45.62940319 
_cell_length_b                    45.69727704424171 
_cell_length_c                    32.256182049643996 
_cell_angle_alpha                 89.66922295985701 
_cell_angle_beta                  89.81568016769309 
_cell_angle_gamma                 90.01640987489989 
loop_ 
_atom_site_label 
_atom_site_type_symbol 
_atom_site_fract_x 
_atom_site_fract_y 
_atom_site_fract_z 
_atom_site_charge 
O1          O  0.31187818  0.86055424  0.04939581    -0.56300
C2          C  0.30381817  0.87548204  0.91668112     0.76400
O3          O  0.22681207  0.86999525  0.99169304    -0.57400
C4          C  0.29989531  0.87260995  0.08050584     0.76300
C5          C  0.27210677  0.94598677  0.99912752     0.78700
Cd6        Cd  0.27854960  0.88399191  0.99780733     1.37500
O7          O  0.31995181  0.87484703  0.94872215    -0.56300
O8          O  0.29652512  0.93371415  0.99235906    -0.55100
C9          C  0.23150153  0.84269254  0.99381095     0.78700
O10         O  0.25016487  0.92942602  0.00494853    -0.57400
O11         O  0.27698747  0.88060003  0.92311472    -0.55900
O12         O  0.27965294  0.89058029  0.07252966    -0.55900
O13         O  0.25787380  0.83467091  0.99782805    -0.55100
O14         O  0.30387576  0.15648541  0.95259748    -0.56300
C15         C  0.29699998  0.15019940  0.08284598     0.76400
O16         O  0.21605682  0.14227146  0.00333463    -0.57400
C17         C  0.29041656  0.14625157  0.92152734     0.76300
C18         C  0.26999164  0.07238881  0.00696883     0.78700
Cd19       Cd  0.26990953  0.13475422  0.00511511     1.37500
O20         O  0.30791576  0.15852087  0.04855514    -0.56300
O21         O  0.29310885  0.08694995  0.99981650    -0.55100
C22         C  0.21781005  0.16974297  0.00732329     0.78700
O23         O  0.24697296  0.08679746  0.01497344    -0.57400
O24         O  0.27477353  0.13375824  0.08091117    -0.55900
O25         O  0.26837145  0.13049186  0.92969465    -0.55900
O26         O  0.24327602  0.18047747  0.00927882    -0.55100
O27         O  0.83909254  0.67186272  0.04374352    -0.56300
C28         C  0.83551094  0.69155266  0.91381821     0.76400
O29         O  0.83589675  0.76683584  0.99242292    -0.57400
C30         C  0.84159108  0.68661064  0.07676141     0.76300
C31         C  0.91014325  0.71998947  0.99840270     0.78700
Cd32       Cd  0.84818663  0.71413492  0.99560633     1.37500
O33         O  0.82393554  0.68018393  0.94589729    -0.56300
O34         O  0.89756267  0.69547961  0.99448830    -0.55100
C35         C  0.80863044  0.76290170  0.99733007     0.78700
O36         O  0.89389537  0.74244740  0.99936902    -0.57400
O37         O  0.85352453  0.71201380  0.92029276    -0.55900
O38         O  0.84643538  0.71360069  0.07143727    -0.55900
O39         O  0.80010290  0.73665536  0.00095404    -0.55100
O40         O  0.10775629  0.66672178  0.95344855    -0.56300
C41         C  0.10635837  0.68375747  0.08308947     0.76400
O42         O  0.11346516  0.75979934  0.99756782    -0.57400
C43         C  0.10674956  0.68211350  0.92061596     0.76300
C44         C  0.03645038  0.71641739  0.00109368     0.78700
Cd45       Cd  0.09821760  0.70818210  0.00083571     1.37500
O46         O  0.11892269  0.67249620  0.05186215    -0.56300
O47         O  0.04811979  0.69138241  0.99820758    -0.55100
C48         C  0.14065065  0.75427788  0.99874746     0.78700
O49         O  0.05361462  0.73819538  0.00254938    -0.57400
O50         O  0.09001997  0.70539045  0.07535732    -0.55900
O51         O  0.10148637  0.70902386  0.92540905    -0.55900
O52         O  0.14788840  0.72765494  0.00212286    -0.55100
O53         O  0.63000207  0.87520134  0.94700848    -0.56300
C54         C  0.64647309  0.87815999  0.07576857     0.76400
O55         O  0.72248889  0.87969657  0.99284791    -0.57400
C56         C  0.64361960  0.88114957  0.91367012     0.76300
C57         C  0.67000217  0.95295551  0.99824897     0.78700
Cd58       Cd  0.66933995  0.89102327  0.99403312     1.37500
O59         O  0.63425953  0.86803115  0.04359639    -0.56300
O60         O  0.64635967  0.93847558  0.99810305    -0.55100
C61         C  0.71870039  0.85227485  0.99553980     0.78700
O62         O  0.69368077  0.93858413  0.99536574    -0.57400
O63         O  0.66838668  0.89453773  0.06950973    -0.55900
O64         O  0.66867807  0.89262842  0.91755807    -0.55900
O65         O  0.69247938  0.84335272  0.99616534    -0.55100
O66         O  0.61300626  0.15126779  0.04977203    -0.56300
C67         C  0.63108368  0.14985948  0.92100233     0.76400
O68         O  0.70780056  0.15388502  0.00024829    -0.57400
C69         C  0.62798755  0.14968299  0.08278143     0.76300
C70         C  0.66393325  0.07909258  0.00680375     0.78700
Cd71       Cd  0.65527274  0.14071903  0.00313697     1.37500
O72         O  0.62346386  0.16586002  0.95114302    -0.56300
O73         O  0.63864923  0.09051701  0.00745469    -0.55100
C74         C  0.70354516  0.18117196  0.00332510     0.78700
O75         O  0.68558182  0.09644762  0.00497656    -0.57400
O76         O  0.64836039  0.12916617  0.92971504    -0.55900
O77         O  0.65479513  0.14357150  0.07830174    -0.55900
O78         O  0.67716820  0.18943748  0.00572171    -0.55100
O79         O  0.72286583  0.65273666  0.67981564    -0.56300
C80         C  0.77377878  0.58074811  0.67021689     0.76400
O81         O  0.80927564  0.65605120  0.61009507    -0.57400
C82         C  0.72555323  0.68033376  0.68043217     0.76300
C83         C  0.80219467  0.65690600  0.74691419     0.78700
Cd84       Cd  0.77521643  0.64322099  0.66931638     1.37500
O85         O  0.75053891  0.59580242  0.67247635    -0.56300
O86         O  0.77968064  0.64100808  0.74374787    -0.55100
C87         C  0.78906231  0.65429066  0.58321718     0.78700
O88         O  0.81359803  0.66601510  0.71321343    -0.57400
O89         O  0.79771625  0.59472176  0.66812467    -0.55900
O90         O  0.75117184  0.69049760  0.67558882    -0.55900
O91         O  0.76385246  0.64782386  0.59671037    -0.55100
O92         O  0.54932451  0.78612100  0.68474266    -0.56300
C93         C  0.63363412  0.76657418  0.68338752     0.76400
O94         O  0.60355981  0.84743626  0.61068246    -0.57400
C95         C  0.53212574  0.80739510  0.67805303     0.76300
C96         C  0.60618726  0.84482595  0.74917587     0.78700
Cd97       Cd  0.59404890  0.81442030  0.67262579     1.37500
O98         O  0.60618814  0.76258426  0.68436907    -0.56300
O99         O  0.58530541  0.82704696  0.74448740    -0.55100
C100        C  0.59798039  0.82727049  0.58487928     0.78700
O101        O  0.62042843  0.85147562  0.71653597    -0.57400
O102        O  0.64241368  0.79255274  0.67769197    -0.55900
O103        O  0.54379022  0.83174018  0.66855301    -0.55900
O104        O  0.59232653  0.80234457  0.59997268    -0.55100
O105        O  0.54021098  0.23920401  0.67929099    -0.56300
C106        C  0.62994205  0.26127177  0.67646918     0.76400
O107        O  0.60634089  0.17362416  0.71995124    -0.57400
C108        C  0.52542095  0.21565185  0.67941716     0.76300
C109        C  0.59095085  0.19591233  0.58951272     0.78700
Cd110      Cd  0.58800230  0.21418871  0.67491273     1.37500
O111        O  0.60266554  0.26637698  0.67872789    -0.56300
O112        O  0.57790446  0.21872673  0.60151806    -0.55100
C113        C  0.59979491  0.18627598  0.75373728     0.78700
O114        O  0.60360380  0.18068647  0.61726382    -0.57400
O115        O  0.63742919  0.23473928  0.67301204    -0.55900
O116        O  0.53985119  0.19199347  0.67894004    -0.55900
O117        O  0.58783779  0.21115327  0.75050321    -0.55100
O118        O  0.74539259  0.43942448  0.66916756    -0.56300
C119        C  0.72082082  0.35065411  0.67644413     0.76400
O120        O  0.80561675  0.37443946  0.61566261    -0.57400
C121        C  0.76892781  0.45384694  0.66414531     0.76300
C122        C  0.79328166  0.38201494  0.74990011     0.78700
Cd123      Cd  0.76911628  0.39104325  0.66876012     1.37500
O124        O  0.71634018  0.37799173  0.67314041    -0.56300
O125        O  0.77270404  0.39973000  0.74234828    -0.55100
C126        C  0.78692727  0.37573835  0.58658144     0.78700
O127        O  0.80461493  0.36946529  0.71867223    -0.57400
O128        O  0.74733039  0.34260468  0.67708167    -0.55900
O129        O  0.79221144  0.43908251  0.65967386    -0.55900
O130        O  0.76151616  0.38451041  0.59601408    -0.55100
O131        O  0.18432288  0.58141504  0.68294530    -0.56300
C132        C  0.20854125  0.67020941  0.67160587     0.76400
O133        O  0.12523547  0.64343388  0.61915237    -0.57400
C134        C  0.16057982  0.56716708  0.67948100     0.76300
C135        C  0.13795763  0.64352886  0.75440691     0.78700
Cd136      Cd  0.16109575  0.62952151  0.67425391     1.37500
O137        O  0.21316299  0.64283218  0.67092499    -0.56300
O138        O  0.16316789  0.63278737  0.74867194    -0.55100
C139        C  0.14155544  0.63328959  0.59063864     0.78700
O140        O  0.12270353  0.64768885  0.72197965    -0.57400
O141        O  0.18200623  0.67826940  0.67295326    -0.55900
O142        O  0.13741510  0.58203368  0.67490098    -0.55900
O143        O  0.16632984  0.62351103  0.60131870    -0.55100
O144        O  0.32759117  0.75239829  0.67977175    -0.56300
C145        C  0.40557942  0.80058810  0.68045959     0.76400
O146        O  0.32890949  0.83595809  0.61597154    -0.57400
C147        C  0.30045182  0.75839514  0.67842579     0.76300
C148        C  0.33322887  0.83431645  0.75205325     0.78700
Cd149      Cd  0.34343834  0.80376855  0.67575678     1.37500
O150        O  0.39014578  0.77796762  0.68731581    -0.56300
O151        O  0.33983052  0.80746564  0.75051649    -0.55100
C152        C  0.33495504  0.81647216  0.58930556     0.78700
O153        O  0.33043782  0.84750255  0.71748733    -0.57400
O154        O  0.39204611  0.82379222  0.67087277    -0.55900
O155        O  0.29379764  0.78530343  0.67841120    -0.55900
O156        O  0.34539472  0.79272009  0.60302254    -0.55100
O157        O  0.17777554  0.42428002  0.67813696    -0.56300
C158        C  0.20324090  0.34107480  0.68313710     0.76400
O159        O  0.11830991  0.35058882  0.72575847    -0.57400
C160        C  0.15497424  0.44002167  0.67607061     0.76300
C161        C  0.13206156  0.36379432  0.59431448     0.78700
Cd162      Cd  0.15193347  0.37720882  0.67706853     1.37500
O163        O  0.20542387  0.36817965  0.67504627    -0.56300
O164        O  0.15861195  0.36500629  0.60498183    -0.55100
C165        C  0.12779620  0.36358757  0.75772586     0.78700
O166        O  0.11328453  0.36829172  0.62268797    -0.57400
O167        O  0.17767294  0.33115875  0.68913491    -0.55900
O168        O  0.13080060  0.42652797  0.67364445    -0.55900
O169        O  0.14634567  0.38364197  0.75128443    -0.55100
O170        O  0.38220953  0.23351382  0.67640104    -0.56300
C171        C  0.29581674  0.25472932  0.68108401     0.76400
O172        O  0.32758306  0.16899685  0.61644646    -0.57400
C173        C  0.39821277  0.21101567  0.67258475     0.76300
C174        C  0.32380377  0.17858406  0.75257451     0.78700
Cd175      Cd  0.33549794  0.20625752  0.67317078     1.37500
O176        O  0.32266879  0.25887838  0.67263286    -0.56300
O177        O  0.34108245  0.20003165  0.74833738    -0.55100
C178        C  0.32339549  0.18842191  0.58880066     0.78700
O179        O  0.31273756  0.16860461  0.71942359    -0.57400
O180        O  0.28773381  0.22849051  0.68663251    -0.55900
O181        O  0.38509167  0.18686292  0.66799002    -0.55900
O182        O  0.32416248  0.21464467  0.60081114    -0.55100
O183        O  0.81502123  0.35692539  0.95048488    -0.56300
C184        C  0.82651721  0.34209604  0.07824001     0.76400
O185        O  0.82076700  0.26596027  0.99505538    -0.57400
C186        C  0.82433285  0.34575209  0.91705861     0.76300
C187        C  0.89667395  0.30947012  0.99715251     0.78700
Cd188      Cd  0.83488491  0.31805386  0.99612228     1.37500
O189        O  0.82708796  0.35860406  0.04651084    -0.56300
O190        O  0.88522891  0.33465005  0.99838949    -0.55100
C191        C  0.79347551  0.27074983  0.99703543     0.78700
O192        O  0.87936503  0.28792586  0.99445228    -0.57400
O193        O  0.82961323  0.31509145  0.07138026    -0.55900
O194        O  0.83878957  0.32229521  0.92059051    -0.55900
O195        O  0.78551421  0.29729721  0.99692252    -0.55100
O196        O  0.10155338  0.33897730  0.05774771    -0.56300
C197        C  0.09612203  0.32687858  0.92517626     0.76400
O198        O  0.09700627  0.24988923  0.00669770    -0.57400
C199        C  0.09185008  0.32491426  0.08897633     0.76300
C200        C  0.02263242  0.30040879  0.00315547     0.78700
Cd201      Cd  0.08444815  0.30237622  0.00585450     1.37500
O202        O  0.10388765  0.34010277  0.95787011    -0.56300
O203        O  0.03678299  0.32423941  0.00337570    -0.55100
C204        C  0.12436945  0.25442961  0.00811268     0.78700
O205        O  0.03733102  0.27686289  0.00332035    -0.57400
O206        O  0.08261613  0.30295286  0.93014285    -0.55900
O207        O  0.07842543  0.30143871  0.08099005    -0.55900
O208        O  0.13279312  0.28079195  0.00761476    -0.55100
O209        O  0.72484505  0.65354712  0.31458821    -0.56300
C210        C  0.77182078  0.57627747  0.32181557     0.76400
O211        O  0.81943299  0.65526358  0.27676212    -0.57400
C212        C  0.73037613  0.68066351  0.31130106     0.76300
C213        C  0.78980239  0.65030434  0.40500743     0.78700
Cd214      Cd  0.77674351  0.63862920  0.31926306     1.37500
O215        O  0.74985002  0.59218768  0.31347342    -0.56300
O216        O  0.76506190  0.64221302  0.39192637    -0.55100
C217        C  0.80756717  0.64919467  0.24227383     0.78700
O218        O  0.81003226  0.65281557  0.37805365    -0.57400
O219        O  0.79587690  0.58937093  0.32774418    -0.55900
O220        O  0.75720992  0.68763766  0.30996668    -0.55900
O221        O  0.78230100  0.63784427  0.24418776    -0.55100
O222        O  0.61111762  0.76270535  0.31310568    -0.56300
C223        C  0.53188245  0.81057603  0.31405483     0.76400
O224        O  0.60366550  0.84736381  0.37902303    -0.57400
C225        C  0.63817755  0.76909954  0.31170358     0.76300
C226        C  0.60805263  0.84389036  0.24135698     0.78700
Cd227      Cd  0.59456603  0.81422216  0.31780517     1.37500
O228        O  0.54770441  0.78816359  0.30781150    -0.56300
O229        O  0.59169703  0.82156619  0.24331136    -0.55100
C230        C  0.59831983  0.82710710  0.40518696     0.78700
O231        O  0.61711951  0.85401714  0.27565530    -0.57400
O232        O  0.54528745  0.83441390  0.32031883    -0.55900
O233        O  0.64436823  0.79608333  0.31186068    -0.55900
O234        O  0.59310201  0.80207563  0.39054132    -0.55100
O235        O  0.54320890  0.24559709  0.32416540    -0.56300
C236        C  0.63461006  0.25754599  0.32179919     0.76400
O237        O  0.60311039  0.18105677  0.38419195    -0.57400
C238        C  0.52624316  0.22368928  0.32112654     0.76300
C239        C  0.59545614  0.18698322  0.24808462     0.78700
Cd240      Cd  0.58805496  0.21534727  0.32673742     1.37500
O241        O  0.60791440  0.26527117  0.32189728    -0.56300
O242        O  0.58907548  0.21377315  0.25178675    -0.55100
C243        C  0.59103072  0.19649937  0.41205797     0.78700
O244        O  0.59855499  0.17271154  0.28174588    -0.57400
O245        O  0.63929095  0.23031555  0.32432020    -0.55900
O246        O  0.53813663  0.19867942  0.32014552    -0.55900
O247        O  0.57837257  0.21960717  0.40010650    -0.55100
O248        O  0.72208841  0.37132658  0.32574215    -0.56300
C249        C  0.77044866  0.44943118  0.32749936     0.76400
O250        O  0.80803464  0.37134430  0.38301091    -0.57400
C251        C  0.72804751  0.34448612  0.32009966     0.76300
C252        C  0.79838229  0.37729704  0.24671633     0.78700
Cd253      Cd  0.77337632  0.38696674  0.32698728     1.37500
O254        O  0.74757930  0.43407603  0.32264263    -0.56300
O255        O  0.77231952  0.38578689  0.25240948    -0.55100
C256        C  0.78841029  0.37270278  0.41100216     0.78700
O257        O  0.81385826  0.37366676  0.27908483    -0.57400
O258        O  0.79428162  0.43572737  0.33244429    -0.55900
O259        O  0.75492682  0.33793948  0.31688560    -0.55900
O260        O  0.76312596  0.38053956  0.39961198    -0.55100
O261        O  0.21159050  0.64450516  0.32670563    -0.56300
C262        C  0.15903041  0.56880235  0.32501634     0.76400
O263        O  0.12371052  0.64384247  0.38646292    -0.57400
C264        C  0.20715846  0.67179876  0.32979868     0.76300
C265        C  0.13463721  0.64547565  0.25070104     0.78700
Cd266      Cd  0.15933109  0.63106317  0.32970825     1.37500
O267        O  0.18301886  0.58278707  0.32717660    -0.56300
O268        O  0.15864866  0.63190681  0.25456776    -0.55100
C269        C  0.14001181  0.63283510  0.41437575     0.78700
O270        O  0.12120670  0.65204806  0.28397767    -0.57400
O271        O  0.13587566  0.58397605  0.32287267    -0.55900
O272        O  0.18068047  0.67978474  0.33306810    -0.55900
O273        O  0.16436419  0.62263992  0.40265637    -0.55100
O274        O  0.38981416  0.78214055  0.31470306    -0.56300
C275        C  0.29912288  0.76015549  0.32196233     0.76400
O276        O  0.32746984  0.83813876  0.38433168    -0.57400
C277        C  0.40446278  0.80551717  0.31934033     0.76300
C278        C  0.32909875  0.83509807  0.24753718     0.78700
Cd279      Cd  0.34187910  0.80620980  0.32417206     1.37500
O280        O  0.32631594  0.75424389  0.32133024    -0.56300
O281        O  0.34143574  0.81034707  0.24963645    -0.55100
C282        C  0.33479649  0.81867427  0.41065854     0.78700
O283        O  0.32249454  0.84728071  0.28166240    -0.57400
O284        O  0.29239999  0.78700159  0.32150786    -0.55900
O285        O  0.38992993  0.82873317  0.32527875    -0.55900
O286        O  0.34603706  0.79553545  0.39646541    -0.55100
O287        O  0.17553089  0.42526568  0.32941043    -0.56300
C288        C  0.19958899  0.34226036  0.32615518     0.76400
O289        O  0.11176812  0.36986270  0.39044113    -0.57400
C290        C  0.15305235  0.44144764  0.33085637     0.76300
C291        C  0.12052972  0.36211363  0.25638341     0.78700
Cd292      Cd  0.14869698  0.37847182  0.33323144     1.37500
O293        O  0.20203975  0.36980569  0.32887137    -0.56300
O294        O  0.14135439  0.38027696  0.25833598    -0.55100
C295        C  0.13120856  0.36580974  0.41791188     0.78700
O296        O  0.11144168  0.35183041  0.29071229    -0.57400
O297        O  0.17384243  0.33197416  0.32617519    -0.55900
O298        O  0.12867057  0.42831098  0.33349335    -0.55900
O299        O  0.15748513  0.36773053  0.40588374    -0.55100
O300        O  0.38296033  0.24350743  0.32997917    -0.56300
C301        C  0.29461997  0.25858518  0.32526528     0.76400
O302        O  0.32112902  0.17618717  0.27955119    -0.57400
C303        C  0.39992034  0.22158482  0.32868509     0.76300
C304        C  0.32661651  0.19256218  0.41266008     0.78700
Cd305      Cd  0.33797510  0.21382928  0.32968172     1.37500
O306        O  0.32160898  0.26494503  0.32763356    -0.56300
O307        O  0.33233131  0.21893002  0.40386949    -0.55100
C308        C  0.32922783  0.19038090  0.24749699     0.78700
O309        O  0.32656384  0.17464137  0.38270261    -0.57400
O310        O  0.28806112  0.23167755  0.32482633    -0.55900
O311        O  0.38812857  0.19650584  0.32984635    -0.55900
O312        O  0.34191342  0.21447495  0.25415913    -0.55100
C313        C  0.27158413  0.28137616  0.32342623    -0.03800
C314        C  0.24821185  0.27865899  0.29506151    -0.00900
C315        C  0.22535092  0.29934098  0.29485767     0.04100
C316        C  0.22536629  0.32263161  0.32349218    -0.03800
C317        C  0.24906989  0.32574640  0.35126251    -0.00900
C318        C  0.27214877  0.30520795  0.35114881     0.04100
C319        C  0.24768116  0.25464228  0.26577176     0.38700
C320        C  0.24895305  0.34896523  0.38177595     0.38700
C321        C  0.29547488  0.30757149  0.38146406     0.37100
C322        C  0.20199519  0.29686486  0.26459191     0.37100
N323        N  0.31403678  0.30930372  0.40570331    -0.37700
N324        N  0.18339650  0.29496425  0.24043885    -0.37700
N325        N  0.24897375  0.36732910  0.40633656    -0.37100
N326        N  0.24719546  0.23540237  0.24260313    -0.37100
C327        C  0.15775503  0.53625522  0.32616459    -0.03800
C328        C  0.13472735  0.52200754  0.34782083    -0.00900
C329        C  0.13388566  0.49124146  0.35051967     0.04100
C330        C  0.15505234  0.47408376  0.32961914    -0.03800
C331        C  0.17787068  0.48836521  0.30740527    -0.00900
C332        C  0.17954492  0.51924217  0.30645993     0.04100
C333        C  0.11211451  0.53886145  0.36869496     0.38700
C334        C  0.19923338  0.47151725  0.28418360     0.38700
C335        C  0.20332974  0.53341575  0.28404849     0.37100
C336        C  0.11180711  0.47751889  0.37666688     0.37100
N337        N  0.22236290  0.54475724  0.26640692    -0.37700
N338        N  0.09422876  0.46689451  0.39785323    -0.37700
N339        N  0.21627845  0.45820431  0.26550071    -0.37100
N340        N  0.09405263  0.55219483  0.38534508    -0.37100
C341        C  0.27607237  0.73705076  0.32435030    -0.03800
C342        C  0.27914150  0.71042237  0.30265190    -0.00900
C343        C  0.25678558  0.68903260  0.30445124     0.04100
C344        C  0.23149771  0.69360679  0.32920963    -0.03800
C345        C  0.22903137  0.71974806  0.35222764    -0.00900
C346        C  0.25066739  0.74166193  0.34890686     0.04100
C347        C  0.30472391  0.70533692  0.27676189     0.38700
C348        C  0.20471993  0.72386962  0.38089249     0.38700
C349        C  0.24675879  0.76878892  0.37146236     0.37100
C350        C  0.25938997  0.66292556  0.27936222     0.37100
N351        N  0.24350603  0.79054416  0.38918723    -0.37700
N352        N  0.26140389  0.64209356  0.25922756    -0.37700
N353        N  0.18553879  0.72709542  0.40391276    -0.37100
N354        N  0.32501550  0.70108297  0.25612079    -0.37100
C355        C  0.49389403  0.22653071  0.31961126    -0.03800
C356        C  0.47887236  0.24439169  0.34838834    -0.00900
C357        C  0.44800082  0.24323289  0.35112968     0.04100
C358        C  0.43205187  0.22475550  0.32448450    -0.03800
C359        C  0.44693034  0.20858618  0.29377610    -0.00900
C360        C  0.47771592  0.20919490  0.29162649     0.04100
C361        C  0.49511995  0.26283814  0.37666343     0.38700
C362        C  0.43045141  0.19177143  0.26367210     0.38700
C363        C  0.49265356  0.19204872  0.26023505     0.37100
C364        C  0.43282360  0.25978046  0.38289198     0.37100
N365        N  0.50440432  0.17823569  0.23523741    -0.37700
N366        N  0.42069649  0.27285884  0.40832949    -0.37700
N367        N  0.41714530  0.17856719  0.23967915    -0.37100
N368        N  0.50803473  0.27765513  0.39914288    -0.37100
C369        C  0.65914054  0.27921958  0.31915592    -0.03800
C370        C  0.68720663  0.27237963  0.33541103    -0.00900
C371        C  0.70989963  0.29332955  0.33446888     0.04100
C372        C  0.70478156  0.32168250  0.31811045    -0.03800
C373        C  0.67724765  0.32815041  0.30029959    -0.00900
C374        C  0.65472232  0.30698614  0.30034872     0.04100
C375        C  0.69305766  0.24400717  0.35411656     0.38700
C376        C  0.67224080  0.35629239  0.28041178     0.38700
C377        C  0.62740291  0.31366867  0.27937882     0.37100
C378        C  0.73835261  0.28560049  0.35147810     0.37100
N379        N  0.60571485  0.31902167  0.26244548    -0.37700
N380        N  0.76101019  0.27927832  0.36485891    -0.37700
N381        N  0.66819689  0.37869932  0.26452770    -0.37100
N382        N  0.69817145  0.22145169  0.36889067    -0.37100
C383        C  0.49925078  0.80906704  0.31511615    -0.03800
C384        C  0.48339266  0.82553864  0.34472761    -0.00900
C385        C  0.45256699  0.82392230  0.34643147     0.04100
C386        C  0.43707354  0.80601654  0.31835248    -0.03800
C387        C  0.45285162  0.78941680  0.28890005    -0.00900
C388        C  0.48376085  0.79109905  0.28708908     0.04100
C389        C  0.49866584  0.84382254  0.37435519     0.38700
C390        C  0.43730402  0.77135399  0.25934517     0.38700
C391        C  0.49941208  0.77546767  0.25485497     0.37100
C392        C  0.43692450  0.84005635  0.37827690     0.37100
N393        N  0.51182020  0.76313378  0.22893904    -0.37700
N394        N  0.42448675  0.85290470  0.40366063    -0.37700
N395        N  0.42488723  0.75691312  0.23584165    -0.37100
N396        N  0.51071933  0.85850393  0.39794117    -0.37100
C397        C  0.76979301  0.54389360  0.32472531    -0.03800
C398        C  0.78585931  0.52870355  0.35550810    -0.00900
C399        C  0.78620811  0.49788719  0.35625319     0.04100
C400        C  0.76958986  0.48189218  0.32719482    -0.03800
C401        C  0.75268162  0.49706230  0.29734961    -0.00900
C402        C  0.75269757  0.52792322  0.29619585     0.04100
C403        C  0.80105888  0.54469738  0.38776886     0.38700
C404        C  0.73654378  0.48102475  0.26612162     0.38700
C405        C  0.73575761  0.54305256  0.26466626     0.37100
C406        C  0.80355745  0.48277368  0.38739482     0.37100
N407        N  0.72208748  0.55497913  0.23957342    -0.37700
N408        N  0.81762769  0.47088415  0.41207553    -0.37700
N409        N  0.72371731  0.46838073  0.24103874    -0.37100
N410        N  0.81296663  0.55734593  0.41374589    -0.37100
C411        C  0.70681756  0.70333715  0.31027545    -0.03800
C412        C  0.71159849  0.73096958  0.32881255    -0.00900
C413        C  0.68893095  0.75187637  0.33031346     0.04100
C414        C  0.66170256  0.74639120  0.31084290    -0.03800
C415        C  0.65725562  0.71921436  0.29097745    -0.00900
C416        C  0.67932092  0.69750337  0.29178645     0.04100
C417        C  0.73958670  0.73790801  0.34777088     0.38700
C418        C  0.63040534  0.71380738  0.26826599     0.38700
C419        C  0.67369850  0.66936316  0.27273827     0.37100
C420        C  0.69343028  0.77847373  0.35395611     0.37100
N421        N  0.66905739  0.64684879  0.25786685    -0.37700
N422        N  0.69704006  0.79950700  0.37310198    -0.37700
N423        N  0.60910412  0.70954084  0.24987256    -0.37100
N424        N  0.76190776  0.74356642  0.36268369    -0.37100
C425        C  0.09633986  0.33479870  0.13280193    -0.03800
C426        C  0.09825688  0.31397236  0.16560718    -0.00900
C427        C  0.10391587  0.32305579  0.20664358     0.04100
C428        C  0.10862270  0.35294450  0.21539961    -0.03800
C429        C  0.10510847  0.37385442  0.18329979    -0.00900
C430        C  0.09902300  0.36491002  0.14233535     0.04100
C431        C  0.09617024  0.28284635  0.15720631     0.38700
C432        C  0.10717441  0.40483496  0.19263120     0.38700
C433        C  0.09529139  0.38697416  0.11026298     0.37100
C434        C  0.10620248  0.30126719  0.23940737     0.37100
N435        N  0.09239429  0.40469869  0.08482796    -0.37700
N436        N  0.10782761  0.28371483  0.26531298    -0.37700
N437        N  0.10873852  0.42950320  0.20023853    -0.37100
N438        N  0.09460967  0.25803449  0.15054313    -0.37100
C439        C  0.92877719  0.30563744  0.99977804    -0.03800
C440        C  0.94355368  0.28591042  0.97332114    -0.00900
C441        C  0.97431521  0.28333978  0.97522046     0.04100
C442        C  0.99032167  0.30057972  0.00342057    -0.03800
C443        C  0.97543977  0.31937930  0.03093605    -0.00900
C444        C  0.94482796  0.32207637  0.02893611     0.04100
C445        C  0.92739418  0.26939063  0.94263133     0.38700
C446        C  0.99157601  0.33538881  0.06228047     0.38700
C447        C  0.92988094  0.34145893  0.05760613     0.37100
C448        C  0.98951987  0.26390022  0.94694998     0.37100
N449        N  0.91800427  0.35698765  0.08035727    -0.37700
N450        N  0.00164532  0.24837596  0.92444986    -0.37700
N451        N  0.00449461  0.34801821  0.08729108    -0.37100
N452        N  0.91458810  0.25625617  0.91803034    -0.37100
C453        C  0.82208614  0.35332725  0.12131747    -0.03800
C454        C  0.80431081  0.37815349  0.12874627    -0.00900
C455        C  0.79831204  0.38714244  0.16972253     0.04100
C456        C  0.80923804  0.37098186  0.20398216    -0.03800
C457        C  0.82809522  0.34702881  0.19662732    -0.00900
C458        C  0.83459118  0.33835623  0.15565782     0.04100
C459        C  0.79057439  0.39364706  0.09452953     0.38700
C460        C  0.83978799  0.33016628  0.23109356     0.38700
C461        C  0.85408496  0.31367391  0.14926022     0.37100
C462        C  0.78079491  0.41323760  0.17641450     0.37100
N463        N  0.86950863  0.29387139  0.14445327    -0.37700
N464        N  0.76684764  0.43404386  0.18166581    -0.37700
N465        N  0.84913637  0.31666174  0.25848184    -0.37100
N466        N  0.77939948  0.40602218  0.06745885    -0.37100
C467        C  0.31855691  0.18199446  0.54407611    -0.03800
C468        C  0.33758936  0.16323181  0.52189710    -0.00900
C469        C  0.33820636  0.16417515  0.47796242     0.04100
C470        C  0.32020361  0.18419587  0.45634895    -0.03800
C471        C  0.29862097  0.19993643  0.47833511    -0.00900
C472        C  0.29760143  0.19860596  0.52195346     0.04100
C473        C  0.35788227  0.14447138  0.54405065     0.38700
C474        C  0.27768036  0.21793328  0.45595397     0.38700
C475        C  0.27515202  0.21470924  0.54420885     0.37100
C476        C  0.35846363  0.14581645  0.45518405     0.37100
N477        N  0.25716344  0.22737972  0.56200121    -0.37700
N478        N  0.37443233  0.13096539  0.43695511    -0.37700
N479        N  0.26091423  0.23216815  0.43808259    -0.37100
N480        N  0.37405790  0.12939433  0.56162830    -0.37100
C481        C  0.12457211  0.35963415  0.46236510    -0.03800
C482        C  0.10441204  0.37697132  0.48481379    -0.00900
C483        C  0.10434142  0.37622183  0.52872963     0.04100
C484        C  0.12453960  0.35824497  0.55015347    -0.03800
C485        C  0.14139818  0.33785545  0.52754857    -0.00900
C486        C  0.14151074  0.33860716  0.48389324     0.04100
C487        C  0.08504231  0.39689701  0.46304919     0.38700
C488        C  0.15890686  0.31618967  0.54936568     0.38700
C489        C  0.15939371  0.31786655  0.46111270     0.37100
C490        C  0.08465795  0.39511716  0.55162770     0.37100
N491        N  0.17359265  0.30124548  0.44303496    -0.37700
N492        N  0.06872920  0.41003005  0.56982703    -0.37700
N493        N  0.17269764  0.29886667  0.56688702    -0.37100
N494        N  0.06938178  0.41268970  0.44581600    -0.37100
C495        C  0.11888855  0.35529155  0.80087374    -0.03800
C496        C  0.09003187  0.34579751  0.81001293    -0.00900
C497        C  0.08230480  0.33734172  0.85086993     0.04100
C498        C  0.10336850  0.33805833  0.88296109    -0.03800
C499        C  0.13206243  0.34776102  0.87399675    -0.00900
C500        C  0.13977477  0.35641715  0.83337793     0.04100
C501        C  0.06794427  0.34537945  0.77777259     0.38700
C502        C  0.15429385  0.34732621  0.90613093     0.38700
C503        C  0.16982120  0.36525333  0.82510684     0.37100
C504        C  0.05236970  0.32859923  0.86005209     0.37100
N505        N  0.19379152  0.37228920  0.81874415    -0.37700
N506        N  0.02848892  0.32171281  0.86738302    -0.37700
N507        N  0.17202300  0.34685663  0.93170900    -0.37100
N508        N  0.05021196  0.34499960  0.75219909    -0.37100
C509        C  0.22909508  0.32143541  0.68459880    -0.03800
C510        C  0.23332340  0.30268728  0.71903799    -0.00900
C511        C  0.25580317  0.28152249  0.71844928     0.04100
C512        C  0.27445425  0.27913759  0.68360087    -0.03800
C513        C  0.27103953  0.29870605  0.64986073    -0.00900
C514        C  0.24824388  0.31961139  0.65018354     0.04100
C515        C  0.21449121  0.30507956  0.75518801     0.38700
C516        C  0.28978054  0.29613276  0.61363244     0.38700
C517        C  0.24311703  0.33765184  0.61373752     0.37100
C518        C  0.25981427  0.26222640  0.75389035     0.37100
N519        N  0.23883134  0.35182531  0.58452666    -0.37700
N520        N  0.26301602  0.24682149  0.78212246    -0.37700
N521        N  0.30470952  0.29403321  0.58472554    -0.37100
N522        N  0.19952329  0.30679865  0.78409611    -0.37100
C523        C  0.33003643  0.82020070  0.54400616    -0.03800
C524        C  0.31787961  0.79670666  0.52149705    -0.00900
C525        C  0.31824402  0.79708157  0.47792238     0.04100
C526        C  0.32998812  0.82133936  0.45609040    -0.03800
C527        C  0.33960091  0.84606340  0.47843125    -0.00900
C528        C  0.33990670  0.84537734  0.52237408     0.04100
C529        C  0.30501314  0.77180533  0.54307206     0.38700
C530        C  0.35092327  0.87141389  0.45640869     0.38700
C531        C  0.35217056  0.86975191  0.54507937     0.37100
C532        C  0.30705849  0.77192423  0.45555829     0.37100
N533        N  0.36202949  0.88918493  0.56318233    -0.37700
N534        N  0.29850731  0.75171102  0.43784247    -0.37700
N535        N  0.35992531  0.89173954  0.43898844    -0.37100
N536        N  0.29468750  0.75182381  0.55979571    -0.37100
C537        C  0.13282614  0.63175470  0.54652953    -0.03800
C538        C  0.12333097  0.65680683  0.52458404    -0.00900
C539        C  0.12293321  0.65665876  0.48070067     0.04100
C540        C  0.13202538  0.63141797  0.45899763    -0.03800
C541        C  0.13782970  0.60534877  0.48136267    -0.00900
C542        C  0.13806941  0.60550524  0.52489824     0.04100
C543        C  0.11584781  0.68320800  0.54692632     0.38700
C544        C  0.14475994  0.57841205  0.45979022     0.38700
C545        C  0.14444938  0.57865193  0.54755867     0.37100
C546        C  0.11537753  0.68309982  0.45814318     0.37100
N547        N  0.14950643  0.55729904  0.56563227    -0.37700
N548        N  0.10928845  0.70426141  0.44028283    -0.37700
N549        N  0.15063543  0.55674514  0.44335381    -0.37100
N550        N  0.10973172  0.70422633  0.56482559    -0.37100
C551        C  0.15972743  0.53464217  0.67984106    -0.03800
C552        C  0.13624042  0.51968602  0.69933759    -0.00900
C553        C  0.13461759  0.48888338  0.69794885     0.04100
C554        C  0.15648664  0.47260118  0.67701603    -0.03800
C555        C  0.18008125  0.48761376  0.65775481    -0.00900
C556        C  0.18169084  0.51842327  0.65919542     0.04100
C557        C  0.11415367  0.53585054  0.72228156     0.38700
C558        C  0.20242327  0.47157066  0.63521562     0.38700
C559        C  0.20553130  0.53340430  0.63799936     0.37100
C560        C  0.11092027  0.47405888  0.71969278     0.37100
N561        N  0.22453463  0.54538682  0.62117058    -0.37700
N562        N  0.09201553  0.46236408  0.73714767    -0.37700
N563        N  0.22033893  0.45888213  0.61729722    -0.37100
N564        N  0.09656458  0.54870282  0.74061410    -0.37100
C565        C  0.27743600  0.73528570  0.67585030    -0.03800
C566        C  0.28149816  0.70752919  0.69475512    -0.00900
C567        C  0.25920790  0.68614185  0.69293638     0.04100
C568        C  0.23282019  0.69198182  0.67149345    -0.03800
C569        C  0.22921842  0.71928054  0.65124709    -0.00900
C570        C  0.25119805  0.74085432  0.65369211     0.04100
C571        C  0.30819254  0.70098360  0.71733848     0.38700
C572        C  0.20318696  0.72511354  0.62669923     0.38700
C573        C  0.24684897  0.76851038  0.63209827     0.37100
C574        C  0.26307654  0.65857860  0.71486412     0.37100
N575        N  0.24329806  0.79051785  0.61488402    -0.37700
N576        N  0.26608491  0.63661769  0.73239566    -0.37700
N577        N  0.18250827  0.72986538  0.60709200    -0.37100
N578        N  0.32944481  0.69548391  0.73525475    -0.37100
C579        C  0.79342019  0.36777558  0.54303376    -0.03800
C580        C  0.81628327  0.38164796  0.52080370    -0.00900
C581        C  0.81659439  0.38085074  0.47696429     0.04100
C582        C  0.79391447  0.36636125  0.45549432    -0.03800
C583        C  0.77329449  0.34948540  0.47807422    -0.00900
C584        C  0.77322091  0.35000627  0.52167529     0.04100
C585        C  0.83801603  0.39873170  0.54268075     0.38700
C586        C  0.75128379  0.33244734  0.45653099     0.38700
C587        C  0.75161763  0.33300269  0.54465484     0.37100
C588        C  0.83874994  0.39703266  0.45409931     0.37100
N589        N  0.73443657  0.31943996  0.56296301    -0.37700
N590        N  0.85646174  0.40992381  0.43585686    -0.37700
N591        N  0.73350493  0.31890878  0.43978851    -0.37100
N592        N  0.85541042  0.41237580  0.56004777    -0.37100
C593        C  0.80237034  0.37550113  0.79345659    -0.03800
C594        C  0.78131505  0.37647942  0.82595447    -0.00900
C595        C  0.78914669  0.36875980  0.86681614     0.04100
C596        C  0.81766785  0.35850697  0.87555526    -0.03800
C597        C  0.83894733  0.35822440  0.84350405    -0.00900
C598        C  0.83147672  0.36714713  0.80285627     0.04100
C599        C  0.75085266  0.38341769  0.81734391     0.38700
C600        C  0.86874028  0.34899693  0.85230824     0.38700
C601        C  0.85399235  0.36803583  0.77098823     0.37100
C602        C  0.76711591  0.36984612  0.89938398     0.37100
N603        N  0.87205147  0.36879678  0.74572157    -0.37700
N604        N  0.74954951  0.37084657  0.92530072    -0.37700
N605        N  0.89248076  0.34154059  0.85919725    -0.37100
N606        N  0.72651560  0.38870950  0.81061869    -0.37100
C607        C  0.59116977  0.18841175  0.54473353    -0.03800
C608        C  0.56443635  0.18806998  0.52274679    -0.00900
C609        C  0.56445460  0.18856004  0.47904617     0.04100
C610        C  0.59122251  0.18880125  0.45687371    -0.03800
C611        C  0.61788939  0.18629034  0.47878751    -0.00900
C612        C  0.61786511  0.18624652  0.52267516     0.04100
C613        C  0.53680374  0.18792173  0.54521161     0.38700
C614        C  0.64549549  0.18636619  0.45644874     0.38700
C615        C  0.64539740  0.18659194  0.54499143     0.37100
C616        C  0.53684225  0.18997084  0.45682654     0.37100
N617        N  0.66735222  0.18703181  0.56284086    -0.37700
N618        N  0.51488773  0.19129944  0.43903343    -0.37700
N619        N  0.66767738  0.18647216  0.43898063    -0.37100
N620        N  0.51479172  0.18771453  0.56314120    -0.37100
C621        C  0.49279062  0.21542790  0.67905961    -0.03800
C622        C  0.47709335  0.23591225  0.65462611    -0.00900
C623        C  0.44619710  0.23463263  0.65261609     0.04100
C624        C  0.43071799  0.21257864  0.67442640    -0.03800
C625        C  0.44644912  0.19170054  0.69800881    -0.00900
C626        C  0.47720734  0.19336219  0.70082816     0.04100
C627        C  0.49270532  0.25722720  0.62935683     0.38700
C628        C  0.43111836  0.16820731  0.71944243     0.38700
C629        C  0.49262158  0.17229170  0.72664031     0.37100
C630        C  0.43056064  0.25491915  0.62588542     0.37100
N631        N  0.50466265  0.15529019  0.74714471    -0.37700
N632        N  0.41824383  0.27102848  0.60429479    -0.37700
N633        N  0.41912225  0.14910639  0.73599249    -0.37100
N634        N  0.50514317  0.27408711  0.60896717    -0.37100
C635        C  0.65227463  0.28497705  0.67804315    -0.03800
C636        C  0.64930303  0.31040545  0.65328493    -0.00900
C637        C  0.67130308  0.33218737  0.65346299     0.04100
C638        C  0.69651118  0.32881162  0.67854090    -0.03800
C639        C  0.69916542  0.30351776  0.70388463    -0.00900
C640        C  0.67720473  0.28175777  0.70357364     0.04100
C641        C  0.62435134  0.31349608  0.62582700     0.38700
C642        C  0.72423976  0.29994255  0.73105872     0.38700
C643        C  0.67999501  0.25626688  0.73039932     0.37100
C644        C  0.66861003  0.35728535  0.62597984     0.37100
N645        N  0.68209650  0.23591570  0.75171797    -0.37700
N646        N  0.66650618  0.37727038  0.60398558    -0.37700
N647        N  0.74421317  0.29698417  0.75271728    -0.37100
N648        N  0.60450591  0.31591751  0.60381651    -0.37100
C649        C  0.59679133  0.83182015  0.53909351    -0.03800
C650        C  0.57272064  0.82029463  0.51701204    -0.00900
C651        C  0.57299188  0.81979291  0.47337915     0.04100
C652        C  0.59693843  0.83165816  0.45090831    -0.03800
C653        C  0.62021543  0.84488820  0.47280890    -0.00900
C654        C  0.62032731  0.84461640  0.51682281     0.04100
C655        C  0.54757425  0.80844525  0.53924243     0.38700
C656        C  0.64507503  0.85677068  0.45023828     0.38700
C657        C  0.64571372  0.85529725  0.53900068     0.37100
C658        C  0.54873096  0.80615693  0.45170685     0.37100
N659        N  0.66613014  0.86354681  0.55663958    -0.37700
N660        N  0.52956477  0.79486476  0.43466219    -0.37700
N661        N  0.66499340  0.86619504  0.43231067    -0.37100
N662        N  0.52756657  0.79892687  0.55687428    -0.37100
C663        C  0.49985124  0.80421785  0.68147442    -0.03800
C664        C  0.48551103  0.77925361  0.66545719    -0.00900
C665        C  0.45464269  0.77742032  0.66643042     0.04100
C666        C  0.43796715  0.80048988  0.68343001    -0.03800
C667        C  0.45239472  0.82456857  0.70164937    -0.00900
C668        C  0.48315521  0.82648168  0.70051176     0.04100
C669        C  0.50228633  0.75592552  0.64639920     0.38700
C670        C  0.43562960  0.84705438  0.72277765     0.38700
C671        C  0.49758342  0.85107795  0.72019498     0.37100
C672        C  0.44011894  0.75228373  0.64835866     0.37100
N673        N  0.50902274  0.87065830  0.73597164    -0.37700
N674        N  0.42856271  0.73220835  0.63405010    -0.37700
N675        N  0.42218909  0.86488040  0.73969978    -0.37100
N676        N  0.51555701  0.73720599  0.63123952    -0.37100
C677        C  0.79366558  0.65893513  0.53785078    -0.03800
C678        C  0.77176934  0.67357607  0.51474506    -0.00900
C679        C  0.77180606  0.67233311  0.47115496     0.04100
C680        C  0.79379262  0.65652364  0.44991169    -0.03800
C681        C  0.81727912  0.64429041  0.47266733    -0.00900
C682        C  0.81732054  0.64566446  0.51656967     0.04100
C683        C  0.74873072  0.68969734  0.53583771     0.38700
C684        C  0.84023903  0.62838492  0.45129190     0.38700
C685        C  0.84079135  0.63184739  0.53968357     0.37100
C686        C  0.74862118  0.68691871  0.44821867     0.37100
N687        N  0.85965923  0.62092230  0.55799413    -0.37700
N688        N  0.72996227  0.69840828  0.43018314    -0.37700
N689        N  0.85855342  0.61560630  0.43434054    -0.37100
N690        N  0.73030090  0.70248107  0.55253632    -0.37100
C691        C  0.77289380  0.54831767  0.66919809    -0.03800
C692        C  0.75454642  0.53264559  0.69682699    -0.00900
C693        C  0.75291758  0.50185463  0.69475296     0.04100
C694        C  0.76950510  0.48642658  0.66482511    -0.03800
C695        C  0.78777476  0.50222016  0.63708774    -0.00900
C696        C  0.78978967  0.53295704  0.63968959     0.04100
C697        C  0.73833072  0.54806747  0.72876786     0.38700
C698        C  0.80357666  0.48711941  0.60448256     0.38700
C699        C  0.80874929  0.54882624  0.61113364     0.37100
C700        C  0.73496831  0.48606958  0.72463282     0.37100
N701        N  0.82394341  0.56158488  0.58861773    -0.37700
N702        N  0.72067246  0.47347235  0.74847316    -0.37700
N703        N  0.81608678  0.47535639  0.57813582    -0.37100
N704        N  0.72550260  0.56036139  0.75431541    -0.37100
C705        C  0.70007451  0.70007049  0.68596299     0.01000
C706        C  0.70255253  0.72491993  0.71161765    -0.00900
C707        C  0.67996944  0.74588266  0.71256776     0.04100
C708        C  0.65479850  0.74221450  0.68779236    -0.03800
C709        C  0.65108461  0.71608635  0.66516939    -0.00900
C710        C  0.67367809  0.69504023  0.66426859     0.04100
C711        C  0.72795483  0.72858002  0.73806043     0.38700
C712        C  0.62466423  0.71137251  0.64117700     0.38700
C713        C  0.67014253  0.66890233  0.63942918     0.37100
C714        C  0.68228870  0.77088942  0.73996615     0.37100
N715        N  0.66722491  0.64800697  0.61976089    -0.37700
N716        N  0.68398740  0.79071665  0.76199680    -0.37700
N717        N  0.60355640  0.70753358  0.62215455    -0.37100
N718        N  0.74803595  0.73150505  0.75946596    -0.37100
C719        C  0.72801664  0.20262441  0.00387753    -0.03800
C720        C  0.75169831  0.20013988  0.97577403    -0.00900
C721        C  0.77359878  0.22196428  0.97414165     0.04100
C722        C  0.77173150  0.24664586  0.00029400    -0.03800
C723        C  0.74880382  0.24838956  0.02973703    -0.00900
C724        C  0.72715285  0.22641920  0.03172565     0.04100
C725        C  0.75291420  0.17578092  0.94708719     0.38700
C726        C  0.74796074  0.27238315  0.05912373     0.38700
C727        C  0.70455449  0.22780895  0.06340895     0.37100
C728        C  0.79735342  0.21949649  0.94442339     0.37100
N729        N  0.68656699  0.22876608  0.08881271    -0.37700
N730        N  0.81634104  0.21738469  0.92069252    -0.37700
N731        N  0.74742128  0.29146781  0.08249390    -0.37100
N732        N  0.75373790  0.15635142  0.92431229    -0.37100
C733        C  0.60627212  0.17335996  0.79537208    -0.03800
C734        C  0.58595595  0.17642372  0.82838108    -0.00900
C735        C  0.59349688  0.16766027  0.86907975     0.04100
C736        C  0.62149329  0.15575712  0.87741389    -0.03800
C737        C  0.64106314  0.15090517  0.84385294    -0.00900
C738        C  0.63357011  0.15984261  0.80322909     0.04100
C739        C  0.55702611  0.18842367  0.82058241     0.38700
C740        C  0.66968952  0.13798994  0.85107570     0.38700
C741        C  0.65496256  0.15683190  0.77012568     0.37100
C742        C  0.57203435  0.17034738  0.90215932     0.37100
N743        N  0.67219757  0.15449066  0.74395807    -0.37700
N744        N  0.55481167  0.17242422  0.92839749    -0.37700
N745        N  0.69244779  0.12758717  0.85688085    -0.37100
N746        N  0.53394885  0.19803474  0.81460169    -0.37100
C747        C  0.61558158  0.15564552  0.12475162    -0.03800
C748        C  0.59454375  0.17796469  0.13048008    -0.00900
C749        C  0.58614319  0.18639684  0.17084359     0.04100
C750        C  0.59988067  0.17378794  0.20613115    -0.03800
C751        C  0.61949152  0.15013539  0.20032798    -0.00900
C752        C  0.62680023  0.14078116  0.15994500     0.04100
C753        C  0.58288019  0.19385510  0.09507920     0.38700
C754        C  0.63351788  0.13614310  0.23556379     0.38700
C755        C  0.64616540  0.11583311  0.15480877     0.37100
C756        C  0.56324061  0.20819757  0.17564976     0.37100
N757        N  0.66158919  0.09593197  0.15084666    -0.37700
N758        N  0.54491955  0.22552669  0.17922163    -0.37700
N759        N  0.64483956  0.12495027  0.26351874    -0.37100
N760        N  0.57370360  0.20676348  0.06700926    -0.37100
C761        C  0.66977320  0.98519656  0.00201363    -0.03800
C762        C  0.68863666  0.00254011  0.97724484    -0.00900
C763        C  0.68790995  0.03327861  0.98037213     0.04100
C764        C  0.66761331  0.04688369  0.00733609    -0.03800
C765        C  0.64930081  0.02946263  0.03287968    -0.00900
C766        C  0.65036029  0.99876435  0.03023136     0.04100
C767        C  0.70741023  0.98891063  0.94647057     0.38700
C768        C  0.62978792  0.04304291  0.06278866     0.38700
C769        C  0.63159580  0.98120571  0.05704257     0.37100
C770        C  0.70730180  0.05076747  0.95446823     0.37100
N771        N  0.61655971  0.96722525  0.07828138    -0.37700
N772        N  0.72294433  0.06458336  0.93391126    -0.37700
N773        N  0.61424376  0.05380589  0.08667573    -0.37100
N774        N  0.72213156  0.97797906  0.92171475    -0.37100
C775        C  0.63616481  0.87105267  0.11875115    -0.03800
C776        C  0.65658755  0.86889431  0.15173041    -0.00900
C777        C  0.64705356  0.86212253  0.19236649     0.04100
C778        C  0.61717777  0.85614664  0.20038727    -0.03800
C779        C  0.59672123  0.85847747  0.16764731    -0.00900
C780        C  0.60607758  0.86620990  0.12722844     0.04100
C781        C  0.68781427  0.87160482  0.14369474     0.38700
C782        C  0.56582707  0.85313673  0.17552954     0.38700
C783        C  0.58448767  0.86942762  0.09457863     0.37100
C784        C  0.66845735  0.85965957  0.22543077     0.37100
N785        N  0.56723073  0.87195260  0.06858280    -0.37700
N786        N  0.68557528  0.85778480  0.25171404    -0.37700
N787        N  0.54120068  0.84879291  0.18169457    -0.37100
N788        N  0.71272418  0.87350020  0.13733238    -0.37100
C789        C  0.63168626  0.87341602  0.87217612    -0.03800
C790        C  0.61944429  0.84541179  0.86608049    -0.00900
C791        C  0.61118108  0.83634067  0.82610003     0.04100
C792        C  0.61419437  0.85548812  0.79149174    -0.03800
C793        C  0.62552555  0.88394621  0.79786020    -0.00900
C794        C  0.63432097  0.89282317  0.83797897     0.04100
C795        C  0.61665992  0.82511059  0.90072150     0.38700
C796        C  0.62767357  0.90435527  0.76338681     0.38700
C797        C  0.64531360  0.92226243  0.84426215     0.37100
C798        C  0.60127040  0.80640026  0.82064995     0.37100
N799        N  0.65396947  0.94577841  0.84936928    -0.37700
N800        N  0.59351091  0.78248435  0.81647654    -0.37700
N801        N  0.62935202  0.92064837  0.73587816    -0.37100
N802        N  0.61441029  0.80903297  0.92840255    -0.37100
C803        C  0.11092198  0.67291686  0.12663079    -0.03800
C804        C  0.10713642  0.69213935  0.16079830    -0.00900
C805        C  0.11388350  0.68281948  0.20146367     0.04100
C806        C  0.12376051  0.65403676  0.20892082    -0.03800
C807        C  0.12569267  0.63422818  0.17552239    -0.00900
C808        C  0.11963060  0.64362093  0.13460803     0.04100
C809        C  0.09732023  0.72206223  0.15459410     0.38700
C810        C  0.13334268  0.60385049  0.18338235     0.38700
C811        C  0.12202044  0.62272575  0.10104933     0.37100
C812        C  0.11233579  0.70358634  0.23533224     0.37100
N813        N  0.12405062  0.60592410  0.07448113    -0.37700
N814        N  0.11124976  0.72016708  0.26227733    -0.37700
N815        N  0.13926890  0.57960732  0.18971699    -0.37100
N816        N  0.08932489  0.74588749  0.14990293    -0.37100
C817        C  0.11224830  0.66981081  0.87855368    -0.03800
C818        C  0.13352109  0.64774767  0.87275299    -0.00900
C819        C  0.14054952  0.63797589  0.83251062     0.04100
C820        C  0.12755406  0.65126814  0.79708764    -0.03800
C821        C  0.10577546  0.67297284  0.80309054    -0.00900
C822        C  0.09759883  0.68148319  0.84353021     0.04100
C823        C  0.14947574  0.63595730  0.90798275     0.38700
C824        C  0.09255367  0.68785452  0.76792980     0.38700
C825        C  0.07362091  0.70202736  0.84890352     0.37100
C826        C  0.16131989  0.61409094  0.82816340     0.37100
N827        N  0.05436381  0.71824388  0.85304394    -0.37700
N828        N  0.17791267  0.59506971  0.82500273    -0.37700
N829        N  0.08208633  0.69995681  0.74005191    -0.37100
N830        N  0.16232918  0.62664151  0.93597180    -0.37100
C831        C  0.74341354  0.83125805  0.99833513    -0.03800
C832        C  0.76775016  0.83350250  0.97128246    -0.00900
C833        C  0.78946875  0.81146411  0.97121737     0.04100
C834        C  0.78743043  0.78753775  0.99915363    -0.03800
C835        C  0.76409004  0.78644719  0.02804814    -0.00900
C836        C  0.74193215  0.80785193  0.02713235     0.04100
C837        C  0.76968402  0.85758792  0.94187605     0.38700
C838        C  0.76310404  0.76357888  0.05949655     0.38700
C839        C  0.71761390  0.80575167  0.05618494     0.37100
C840        C  0.81284996  0.81266034  0.94065795     0.37100
N841        N  0.69810561  0.80396226  0.07908696    -0.37700
N842        N  0.83132351  0.81372203  0.91602179    -0.37700
N843        N  0.76244265  0.74539781  0.08461643    -0.37100
N844        N  0.77125109  0.87681241  0.91845004    -0.37100
C845        C  0.94236256  0.72173087  0.00240118    -0.03800
C846        C  0.95875257  0.74269513  0.97981454    -0.00900
C847        C  0.98965691  0.74173789  0.98042187     0.04100
C848        C  0.00420213  0.71963048  0.00331216    -0.03800
C849        C  0.98770620  0.69990168  0.02797290    -0.00900
C850        C  0.95695051  0.70127438  0.02799710     0.04100
C851        C  0.94395135  0.76457179  0.95471007     0.38700
C852        C  0.00228302  0.67838885  0.05405160     0.38700
C853        C  0.94030734  0.68228115  0.05566259     0.37100
C854        C  0.00630487  0.76269821  0.95592675     0.37100
N855        N  0.92699483  0.66738104  0.07793118    -0.37700
N856        N  0.01950210  0.77950479  0.93642973    -0.37700
N857        N  0.01381731  0.66114959  0.07475017    -0.37100
N858        N  0.93218382  0.78209982  0.93477827    -0.37100
C859        C  0.82812291  0.68213602  0.87068566    -0.03800
C860        C  0.82059743  0.65272239  0.86202001    -0.00900
C861        C  0.81348108  0.64425234  0.82120304     0.04100
C862        C  0.81346876  0.66506496  0.78853127    -0.03800
C863        C  0.82114647  0.69434714  0.79696209    -0.00900
C864        C  0.82826481  0.70288321  0.83770389     0.04100
C865        C  0.82020778  0.63088707  0.89485759     0.38700
C866        C  0.81999920  0.71626351  0.76420895     0.38700
C867        C  0.83393100  0.73360008  0.84571323     0.37100
C868        C  0.80645601  0.61385366  0.81275752     0.37100
N869        N  0.83831368  0.75813572  0.85187288    -0.37700
N870        N  0.80078618  0.58968435  0.80582482    -0.37700
N871        N  0.81896262  0.73375470  0.73815910    -0.37100
N872        N  0.81965623  0.61334826  0.92087836    -0.37100
C873        C  0.82157445  0.65574328  0.20123335    -0.03800
C874        C  0.81606084  0.63744967  0.16684854    -0.00900
C875        C  0.82361039  0.64661868  0.12623209     0.04100
C876        C  0.83806398  0.67374483  0.11959571    -0.03800
C877        C  0.84773708  0.68954914  0.15484309    -0.00900
C878        C  0.83854847  0.68129405  0.19514347     0.04100
C879        C  0.80291617  0.60882512  0.17329685     0.38700
C880        C  0.86786425  0.71397558  0.15018177     0.38700
C881        C  0.84534654  0.70017197  0.22985238     0.37100
C882        C  0.81586579  0.62807362  0.09160240     0.37100
N883        N  0.85066506  0.71538931  0.25738629    -0.37700
N884        N  0.80967891  0.61311136  0.06415298    -0.37700
N885        N  0.88421549  0.73321101  0.14672251    -0.37100
N886        N  0.79267186  0.58593448  0.17864993    -0.37100
C887        C  0.14590430  0.23036704  0.01075736    -0.03800
C888        C  0.14553943  0.20725307  0.98188694    -0.00900
C889        C  0.16839029  0.18642396  0.98171325     0.04100
C890        C  0.19168416  0.18882327  0.01031043    -0.03800
C891        C  0.19089911  0.21086380  0.04084627    -0.00900
C892        C  0.16809655  0.23152613  0.04107202     0.04100
C893        C  0.12259035  0.20584204  0.95091638     0.38700
C894        C  0.21338451  0.21208525  0.07256912     0.38700
C895        C  0.16727494  0.25381215  0.07299693     0.37100
C896        C  0.16858501  0.16351813  0.95076875     0.37100
N897        N  0.16657509  0.27152442  0.09848155    -0.37700
N898        N  0.16854823  0.14524969  0.92607191    -0.37700
N899        N  0.23129722  0.21299677  0.09785182    -0.37100
N900        N  0.10427581  0.20481212  0.92622017    -0.37100
C901        C  0.30857637  0.16012762  0.12349651    -0.03800
C902        C  0.31353541  0.13981994  0.15589259    -0.00900
C903        C  0.32179840  0.14956389  0.19569233     0.04100
C904        C  0.32361815  0.17988256  0.20426796    -0.03800
C905        C  0.31930078  0.20019341  0.17128273    -0.00900
C906        C  0.31237744  0.19028510  0.13106516     0.04100
C907        C  0.31036890  0.10872292  0.14818344     0.38700
C908        C  0.32049899  0.23149797  0.17862053     0.38700
C909        C  0.30752657  0.21137305  0.09792112     0.37100
C910        C  0.32937002  0.12819427  0.22730963     0.37100
N911        N  0.30366813  0.22811708  0.07143217    -0.37700
N912        N  0.33568129  0.11114819  0.25241290    -0.37700
N913        N  0.32134941  0.25648160  0.18419198    -0.37100
N914        N  0.30769032  0.08394317  0.14204736    -0.37100
C915        C  0.29943883  0.15264097  0.87771057    -0.03800
C916        C  0.27806249  0.15456419  0.84595491    -0.00900
C917        C  0.28634543  0.16102491  0.80466134     0.04100
C918        C  0.31593000  0.16710115  0.79467103    -0.03800
C919        C  0.33734162  0.16492632  0.82627305    -0.00900
C920        C  0.32924584  0.15712630  0.86723427     0.04100
C921        C  0.24713388  0.15162116  0.85581658     0.38700
C922        C  0.36793758  0.17062749  0.81701821     0.38700
C923        C  0.35189133  0.15310807  0.89827870     0.37100
C924        C  0.26391892  0.16292624  0.77292727     0.37100
N925        N  0.37003448  0.14978925  0.92285540    -0.37700
N926        N  0.24598012  0.16429961  0.74770991    -0.37700
N927        N  0.39245089  0.17537243  0.81065086    -0.37100
N928        N  0.22244850  0.14945762  0.86358143    -0.37100
C929        C  0.20732189  0.82105764  0.99276129    -0.03800
C930        C  0.20959584  0.79584267  0.96775644    -0.00900
C931        C  0.18765480  0.77413789  0.96951434     0.04100
C932        C  0.16308542  0.77767551  0.99586473    -0.03800
C933        C  0.16034793  0.80334621  0.01976078    -0.00900
C934        C  0.18244060  0.82489446  0.01832930     0.04100
C935        C  0.23404851  0.79253591  0.93923965     0.38700
C936        C  0.13560858  0.80698145  0.04763069     0.38700
C937        C  0.18025835  0.85030560  0.04494894     0.37100
C938        C  0.19010673  0.74839285  0.94350685     0.37100
N939        N  0.17864818  0.87055787  0.06621211    -0.37700
N940        N  0.19193018  0.72777470  0.92297237    -0.37700
N941        N  0.11596702  0.80994329  0.07000197    -0.37100
N942        N  0.25338215  0.78980747  0.91626233    -0.37100
C943        C  0.26976394  0.04003316  0.00482127    -0.03800
C944        C  0.25580276  0.02320662  0.03604564    -0.00900
C945        C  0.25558205  0.99239091  0.03354367     0.04100
C946        C  0.26972195  0.97826931  0.00012495    -0.03800
C947        C  0.28317800  0.99512983  0.96856516    -0.00900
C948        C  0.28323241  0.02586604  0.97089569     0.04100
C949        C  0.24314404  0.03745123  0.07200684     0.38700
C950        C  0.29634577  0.98084683  0.93296536     0.38700
C951        C  0.29667034  0.04286453  0.93773812     0.37100
C952        C  0.24193998  0.97528022  0.06638696     0.37100
N953        N  0.30744829  0.05637249  0.91132793    -0.37700
N954        N  0.23102957  0.96172330  0.09264022    -0.37700
N955        N  0.30678070  0.96937361  0.90463486    -0.37100
N956        N  0.23325394  0.04875265  0.10086327    -0.37100
C957        C  0.31483729  0.86933465  0.87373926    -0.03800
C958        C  0.33963827  0.85124074  0.86719410    -0.00900
C959        C  0.34675881  0.84157017  0.82687496     0.04100
C960        C  0.32870797  0.84895173  0.79276943    -0.03800
C961        C  0.30524215  0.86860135  0.79868719    -0.00900
C962        C  0.29875443  0.87926507  0.83868333     0.04100
C963        C  0.35713984  0.84104090  0.90187429     0.38700
C964        C  0.28640722  0.87641006  0.76416640     0.38700
C965        C  0.27514925  0.90031449  0.84337059     0.37100
C966        C  0.37278775  0.82382368  0.82055415     0.37100
N967        N  0.25628201  0.91704775  0.84691912    -0.37700
N968        N  0.39353740  0.80972770  0.81538519    -0.37700
N969        N  0.27127286  0.88245775  0.73669859    -0.37100
N970        N  0.37113923  0.83269910  0.92937005    -0.37100
C971        C  0.30815351  0.86552661  0.12424490    -0.03800
C972        C  0.33730284  0.85789654  0.13456230    -0.00900
C973        C  0.34432400  0.84907952  0.17535907     0.04100
C974        C  0.32248945  0.84839388  0.20653547    -0.03800
C975        C  0.29376576  0.85752767  0.19699247    -0.00900
C976        C  0.28647300  0.86558769  0.15599064     0.04100
C977        C  0.36032403  0.85941769  0.10349959     0.38700
C978        C  0.27115185  0.85700075  0.22877546     0.38700
C979        C  0.25607588  0.87203457  0.14633005     0.37100
C980        C  0.37422424  0.84085412  0.18541985     0.37100
N981        N  0.23180750  0.87700181  0.13868588    -0.37700
N982        N  0.39798867  0.83420356  0.19364997    -0.37700
N983        N  0.25300461  0.85666828  0.25392621    -0.37100
N984        N  0.37877074  0.86064152  0.07884175    -0.37100
loop_ 
_geom_bond_atom_site_label_1 
_geom_bond_atom_site_label_2 
_geom_bond_distance 
_geom_bond_site_symmetry_2 
_ccdc_geom_bond_type 
O1            C4   1.270       .  A
O1           Cd6   2.495   1_554  S
C2           O11   1.263       .  A
C2            O7   1.271       .  A
C2          C957   1.500       .  S
O3            C9   1.267       .  A
O3           Cd6   2.455       .  S
C4           O12   1.262       .  A
C4          C971   1.495       .  S
C5           O10   1.268   1_556  A
C5            O8   1.266       .  A
C5          C946   1.480   1_556  S
Cd6          O13   2.443       .  S
Cd6          O12   2.431   1_556  S
Cd6          O11   2.416       .  S
Cd6           O7   2.498       .  S
Cd6          O10   2.459   1_556  S
Cd6           O8   2.421       .  S
C9           O13   1.265       .  A
C9          C929   1.482       .  S
O14          C17   1.269       .  A
O14         Cd19   2.494   1_556  S
C15          O24   1.264       .  A
C15          O20   1.268       .  A
C15         C901   1.488       .  S
O16          C22   1.265       .  A
O16         Cd19   2.482       .  S
C17          O25   1.263       .  A
C17         C915   1.498       .  S
C18          O23   1.266       .  A
C18          O21   1.267   1_554  A
C18         C943   1.481       .  S
Cd19         O26   2.422       .  S
Cd19         O25   2.443   1_554  S
Cd19         O24   2.456       .  S
Cd19         O20   2.486       .  S
Cd19         O23   2.447       .  S
Cd19         O21   2.434   1_554  S
C22          O26   1.263       .  A
C22         C890   1.480       .  S
O27          C30   1.269       .  A
O27         Cd32   2.505   1_554  S
C28          O37   1.263       .  A
C28          O33   1.269       .  A
C28         C859   1.498       .  S
O29          C35   1.266       .  A
O29         Cd32   2.475       .  S
C30          O38   1.264       .  A
C30         C876   1.507       .  S
C31          O36   1.267       .  A
C31          O34   1.266       .  A
C31         C845   1.478   1_556  S
Cd32         O39   2.430   1_556  S
Cd32         O38   2.447   1_556  S
Cd32         O37   2.443       .  S
Cd32         O33   2.498       .  S
Cd32         O36   2.458       .  S
Cd32         O34   2.409       .  S
C35          O39   1.265   1_556  A
C35         C834   1.486       .  S
O40          C43   1.269       .  A
O40         Cd45   2.479   1_556  S
C41          O50   1.263       .  A
C41          O46   1.269       .  A
C41         C803   1.502       .  S
O42          C48   1.267       .  A
O42         Cd45   2.461   1_556  S
C43          O51   1.263       .  A
C43         C817   1.492       .  S
C44          O49   1.267       .  A
C44          O47   1.266   1_554  A
C44         C848   1.480       .  S
Cd45         O52   2.435       .  S
Cd45         O51   2.437   1_554  S
Cd45         O50   2.434       .  S
Cd45         O46   2.498       .  S
Cd45         O49   2.455       .  S
Cd45         O47   2.413   1_554  S
C48          O52   1.265   1_556  A
C48         C932   1.482       .  S
O53          C56   1.268       .  A
O53         Cd58   2.465       .  S
C54          O63   1.264       .  A
C54          O59   1.269       .  A
C54         C775   1.496       .  S
O55          C61   1.267       .  A
O55         Cd58   2.480       .  S
C56          O64   1.265       .  A
C56         C789   1.491       .  S
C57          O62   1.268       .  A
C57          O60   1.265       .  A
C57         C761   1.479   1_556  S
Cd58         O65   2.422       .  S
Cd58         O64   2.468       .  S
Cd58         O63   2.441   1_556  S
Cd58         O59   2.487   1_556  S
Cd58         O62   2.441       .  S
Cd58         O60   2.413       .  S
C61          O65   1.264       .  A
C61         C831   1.484       .  S
O66          C69   1.269       .  A
O66         Cd71   2.491       .  S
C67          O76   1.262       .  A
C67          O72   1.268       .  A
C67         C736   1.497       .  S
O68          C74   1.266       .  A
O68         Cd71   2.472       .  S
C69          O77   1.263       .  A
C69         C747   1.492       .  S
C70          O75   1.268       .  A
C70          O73   1.267       .  A
C70         C764   1.481       .  S
Cd71         O78   2.442       .  S
Cd71         O77   2.429       .  S
Cd71         O76   2.451   1_554  S
Cd71         O72   2.497   1_554  S
Cd71         O75   2.451       .  S
Cd71         O73   2.419       .  S
C74          O78   1.264       .  A
C74         C719   1.486       .  S
O79          C82   1.267       .  A
O79         Cd84   2.451       .  S
C80          O89   1.266       .  A
C80          O85   1.266       .  A
C80         C691   1.483       .  S
O81          C87   1.271       .  A
O81         Cd84   2.525       .  S
C82          O90   1.267       .  A
C82         C705   1.483       .  S
C83          O88   1.272       .  A
C83          O86   1.263       .  A
C83         C862   1.489       .  S
Cd84         O91   2.408       .  S
Cd84         O90   2.432       .  S
Cd84         O89   2.443       .  S
Cd84         O85   2.443       .  S
Cd84         O88   2.488       .  S
Cd84         O86   2.412       .  S
C87          O91   1.263       .  A
C87         C677   1.492       .  S
O92          C95   1.268       .  A
O92         Cd97   2.445       .  S
C93         O102   1.265       .  A
C93          O98   1.266       .  A
C93         C708   1.480       .  S
O94         C100   1.272       .  A
O94         Cd97   2.533       .  S
C95         O103   1.269       .  A
C95         C663   1.483       .  S
C96         O101   1.271       .  A
C96          O99   1.262       .  A
C96         C792   1.498       .  S
Cd97        O104   2.412       .  S
Cd97        O103   2.430       .  S
Cd97        O102   2.428       .  S
Cd97         O98   2.460       .  S
Cd97        O101   2.522       .  S
Cd97         O99   2.424       .  S
C100        O104   1.262       .  A
C100        C649   1.491       .  S
O105        C108   1.270       .  A
O105       Cd110   2.466       .  S
C106        O115   1.265       .  A
C106        O111   1.268       .  A
C106        C635   1.488       .  S
O107        C113   1.271       .  A
O107       Cd110   2.495       .  S
C108        O116   1.266       .  A
C108        C621   1.489       .  S
C109        O114   1.271       .  A
C109        O112   1.263       .  A
C109        C607   1.486       .  S
Cd110       O117   2.441       .  S
Cd110       O116   2.422       .  S
Cd110       O115   2.443       .  S
Cd110       O111   2.481       .  S
Cd110       O114   2.517       .  S
Cd110       O112   2.421       .  S
C113        O117   1.265       .  A
C113        C733   1.494       .  S
O118        C121   1.269       .  A
O118       Cd123   2.462       .  S
C119        O128   1.265       .  A
C119        O124   1.270       .  A
C119        C638   1.493       .  S
O120        C126   1.271       .  A
O120       Cd123   2.506       .  S
C121        O129   1.267       .  A
C121        C694   1.489       .  S
C122        O127   1.271       .  A
C122        O125   1.263       .  A
C122        C593   1.494       .  S
Cd123       O130   2.393       .  S
Cd123       O129   2.450       .  S
Cd123       O128   2.439       .  S
Cd123       O124   2.484       .  S
Cd123       O127   2.487       .  S
Cd123       O125   2.415       .  S
C126        O130   1.264       .  A
C126        C579   1.482       .  S
O131        C134   1.269       .  A
O131       Cd136   2.456       .  S
C132        O141   1.266       .  A
C132        O137   1.269       .  A
C132        C568   1.489       .  S
O133        C139   1.271       .  A
O133       Cd136   2.499       .  S
C134        O142   1.265       .  A
C134        C551   1.487       .  S
C135        O140   1.272       .  A
C135        O138   1.264       .  A
C135        C820   1.499       .  S
Cd136       O143   2.381       .  S
Cd136       O142   2.424       .  S
Cd136       O141   2.423       .  S
Cd136       O137   2.454       .  S
Cd136       O140   2.475       .  S
Cd136       O138   2.408       .  S
C139        O143   1.264       .  A
C139        C537   1.481       .  S
O144        C147   1.269       .  A
O144       Cd149   2.459       .  S
C145        O154   1.265       .  A
C145        O150   1.269       .  A
C145        C666   1.481       .  S
O146        C152   1.271       .  A
O146       Cd149   2.510       .  S
C147        O155   1.267       .  A
C147        C565   1.492       .  S
C148        O153   1.271       .  A
C148        O151   1.265       .  A
C148        C960   1.491       .  S
Cd149       O156   2.404       .  S
Cd149       O155   2.418       .  S
Cd149       O154   2.403       .  S
Cd149       O150   2.464       .  S
Cd149       O153   2.487       .  S
Cd149       O151   2.423       .  S
C152        O156   1.264       .  A
C152        C523   1.488       .  S
O157        C160   1.267       .  A
O157       Cd162   2.453       .  S
C158        O167   1.265       .  A
C158        O163   1.268       .  A
C158        C509   1.483       .  S
O159        C165   1.270       .  A
O159       Cd162   2.502       .  S
C160        O168   1.266       .  A
C160        C554   1.491       .  S
C161        O166   1.269       .  A
C161        O164   1.262       .  A
C161        C484   1.489       .  S
Cd162       O169   2.426       .  S
Cd162       O168   2.454       .  S
Cd162       O167   2.440       .  S
Cd162       O163   2.476       .  S
Cd162       O166   2.526       .  S
Cd162       O164   2.413       .  S
C165        O169   1.263       .  A
C165        C495   1.495       .  S
O170        C173   1.268       .  A
O170       Cd175   2.471       .  S
C171        O180   1.266       .  A
C171        O176   1.268       .  A
C171        C512   1.484       .  S
O172        C178   1.270       .  A
O172       Cd175   2.533       .  S
C173        O181   1.265       .  A
C173        C624   1.486       .  S
C174        O179   1.271       .  A
C174        O177   1.264       .  A
C174        C918   1.496       .  S
Cd175       O182   2.421       .  S
Cd175       O181   2.436       .  S
Cd175       O180   2.444       .  S
Cd175       O176   2.475       .  S
Cd175       O179   2.495       .  S
Cd175       O177   2.454       .  S
C178        O182   1.262       .  A
C178        C467   1.491       .  S
O183        C186   1.268       .  A
O183       Cd188   2.475       .  S
C184        O193   1.263       .  A
C184        O189   1.268       .  A
C184        C453   1.497       .  S
O185        C191   1.266       .  A
O185       Cd188   2.466       .  S
C186        O194   1.264       .  A
C186        C596   1.489       .  S
C187        O192   1.266       .  A
C187        O190   1.265       .  A
C187        C439   1.478       .  S
Cd188       O195   2.444       .  S
Cd188       O194   2.449       .  S
Cd188       O193   2.442   1_556  S
Cd188       O189   2.497   1_556  S
Cd188       O192   2.453       .  S
Cd188       O190   2.420       .  S
C191        O195   1.266       .  A
C191        C722   1.485   1_556  S
O196        C199   1.270       .  A
O196       Cd201   2.500       .  S
C197        O206   1.264       .  A
C197        O202   1.270       .  A
C197        C498   1.488       .  S
O198        C204   1.267       .  A
O198       Cd201   2.466       .  S
C199        O207   1.263       .  A
C199        C425   1.501       .  S
C200        O205   1.268       .  A
C200        O203   1.266       .  A
C200        C442   1.474   1_455  S
Cd201       O208   2.417       .  S
Cd201       O207   2.438       .  S
Cd201       O206   2.444   1_554  S
Cd201       O202   2.473   1_554  S
Cd201       O205   2.447       .  S
Cd201       O203   2.395       .  S
C204        O208   1.264       .  A
C204        C887   1.477       .  S
O209        C212   1.268       .  A
O209       Cd214   2.469       .  S
C210        O219   1.266       .  A
C210        O215   1.267       .  A
C210        C397   1.485       .  S
O211        C217   1.271       .  A
O211       Cd214   2.494       .  S
C212        O220   1.266       .  A
C212        C411   1.494       .  S
C213        O218   1.271       .  A
C213        O216   1.262       .  A
C213        C680   1.489       .  S
Cd214       O221   2.435       .  S
Cd214       O220   2.428       .  S
Cd214       O219   2.429       .  S
Cd214       O215   2.460       .  S
Cd214       O218   2.521       .  S
Cd214       O216   2.409       .  S
C217        O221   1.265       .  A
C217        C873   1.497       .  S
O222        C225   1.269       .  A
O222       Cd227   2.478       .  S
C223        O232   1.267       .  A
C223        O228   1.270       .  A
C223        C383   1.491       .  S
O224        C230   1.272       .  A
O224       Cd227   2.531       .  S
C225        O233   1.265       .  A
C225        C414   1.494       .  S
C226        O231   1.272       .  A
C226        O229   1.265       .  A
C226        C778   1.490       .  S
Cd227       O234   2.409       .  S
Cd227       O233   2.427       .  S
Cd227       O232   2.432       .  S
Cd227       O228   2.470       .  S
Cd227       O231   2.485       .  S
Cd227       O229   2.428       .  S
C230        O234   1.263       .  A
C230        C652   1.492       .  S
O235        C238   1.270       .  A
O235       Cd240   2.471       .  S
C236        O245   1.265       .  A
C236        O241   1.268       .  A
C236        C369   1.496       .  S
O237        C243   1.270       .  A
O237       Cd240   2.517       .  S
C238        O246   1.266       .  A
C238        C355   1.483       .  S
C239        O244   1.272       .  A
C239        O242   1.265       .  A
C239        C750   1.498       .  S
Cd240       O247   2.415       .  S
Cd240       O246   2.412       .  S
Cd240       O245   2.437       .  S
Cd240       O241   2.458       .  S
Cd240       O244   2.482       .  S
Cd240       O242   2.419       .  S
C243        O247   1.263       .  A
C243        C610   1.486       .  S
O248        C251   1.270       .  A
O248       Cd253   2.447       .  S
C249        O258   1.265       .  A
C249        O254   1.268       .  A
C249        C400   1.484       .  S
O250        C256   1.271       .  A
O250       Cd253   2.506       .  S
C251        O259   1.267       .  A
C251        C372   1.489       .  S
C252        O257   1.272       .  A
C252        O255   1.264       .  A
C252        C456   1.493       .  S
Cd253       O260   2.404       .  S
Cd253       O259   2.417       .  S
Cd253       O258   2.431       .  S
Cd253       O254   2.457       .  S
Cd253       O257   2.482       .  S
Cd253       O255   2.407       .  S
C256        O260   1.263       .  A
C256        C582   1.485       .  S
O261        C264   1.268       .  A
O261       Cd266   2.464       .  S
C262        O271   1.266       .  A
C262        O267   1.270       .  A
C262        C327   1.489       .  S
O263        C269   1.271       .  A
O263       Cd266   2.516       .  S
C264        O272   1.266       .  A
C264        C344   1.492       .  S
C265        O270   1.272       .  A
C265        O268   1.265       .  A
C265        C806   1.488       .  S
Cd266       O273   2.394       .  S
Cd266       O272   2.433       .  S
Cd266       O271   2.414       .  S
Cd266       O267   2.459       .  S
Cd266       O270   2.474       .  S
Cd266       O268   2.424       .  S
C269        O273   1.263       .  A
C269        C540   1.485       .  S
O274        C277   1.270       .  A
O274       Cd279   2.467       .  S
C275        O284   1.265       .  A
C275        O280   1.270       .  A
C275        C341   1.492       .  S
O276        C282   1.272       .  A
O276       Cd279   2.520       .  S
C277        O285   1.266       .  A
C277        C386   1.488       .  S
C278        O283   1.272       .  A
C278        O281   1.265       .  A
C278        C974   1.484       .  S
Cd279       O286   2.388       .  S
Cd279       O285   2.422       .  S
Cd279       O284   2.424       .  S
Cd279       O280   2.481       .  S
Cd279       O283   2.483       .  S
Cd279       O281   2.411       .  S
C282        O286   1.263       .  A
C282        C526   1.487       .  S
O287        C290   1.266       .  A
O287       Cd292   2.466       .  S
C288        O297   1.265       .  A
C288        O293   1.267       .  A
C288        C316   1.482       .  S
O289        C295   1.269       .  A
O289       Cd292   2.524       .  S
C290        O298   1.266       .  A
C290        C330   1.494       .  S
C291        O296   1.269       .  A
C291        O294   1.263       .  A
C291        C428   1.493       .  S
Cd292       O299   2.426       .  S
Cd292       O298   2.454       .  S
Cd292       O297   2.427       .  S
Cd292       O293   2.470       .  S
Cd292       O296   2.507       .  S
Cd292       O294   2.441       .  S
C295        O299   1.262       .  A
C295        C481   1.490       .  S
O300        C303   1.267       .  A
O300       Cd305   2.460       .  S
C301        O310   1.266       .  A
C301        O306   1.268       .  A
C301        C313   1.481       .  S
O302        C308   1.271       .  A
O302       Cd305   2.491       .  S
C303        O311   1.266       .  A
C303        C358   1.479       .  S
C304        O309   1.270       .  A
C304        O307   1.263       .  A
C304        C470   1.486       .  S
Cd305       O312   2.442       .  S
Cd305       O311   2.422       .  S
Cd305       O310   2.425       .  S
Cd305       O306   2.453       .  S
Cd305       O309   2.522       .  S
Cd305       O307   2.419       .  S
C308        O312   1.264       .  A
C308        C904   1.500       .  S
C313        C314   1.413       .  A
C313        C318   1.413       .  A
C314        C315   1.408       .  A
C314        C319   1.453       .  S
C315        C316   1.413       .  A
C315        C322   1.452       .  S
C316        C317   1.414       .  A
C317        C318   1.411       .  A
C317        C320   1.451       .  S
C318        C321   1.452       .  S
C319        N326   1.157       .  T
C320        N325   1.157       .  T
C321        N323   1.158       .  T
C322        N324   1.157       .  T
C327        C328   1.416       .  A
C327        C332   1.414       .  A
C328        C329   1.409       .  A
C328        C333   1.454       .  S
C329        C330   1.416       .  A
C329        C336   1.452       .  S
C330        C331   1.419       .  A
C331        C332   1.413       .  A
C331        C334   1.451       .  S
C332        C335   1.452       .  S
C333        N340   1.158       .  T
C334        N339   1.157       .  T
C335        N337   1.158       .  T
C336        N338   1.157       .  T
C341        C342   1.414       .  A
C341        C346   1.418       .  A
C342        C343   1.413       .  A
C342        C347   1.453       .  S
C343        C344   1.417       .  A
C343        C350   1.450       .  S
C344        C345   1.414       .  A
C345        C346   1.409       .  A
C345        C348   1.455       .  S
C346        C349   1.452       .  S
C347        N354   1.156       .  T
C348        N353   1.156       .  T
C349        N351   1.159       .  T
C350        N352   1.159       .  T
C355        C356   1.415       .  A
C355        C360   1.414       .  A
C356        C357   1.412       .  A
C356        C361   1.451       .  S
C357        C358   1.412       .  A
C357        C364   1.451       .  S
C358        C359   1.412       .  A
C359        C360   1.406       .  A
C359        C362   1.453       .  S
C360        C363   1.452       .  S
C361        N368   1.157       .  T
C362        N367   1.158       .  T
C363        N365   1.157       .  T
C364        N366   1.157       .  T
C369        C370   1.420       .  A
C369        C374   1.418       .  A
C370        C371   1.410       .  A
C370        C375   1.452       .  S
C371        C372   1.416       .  A
C371        C378   1.454       .  S
C372        C373   1.414       .  A
C373        C374   1.411       .  A
C373        C376   1.452       .  S
C374        C377   1.452       .  S
C375        N382   1.157       .  T
C376        N381   1.157       .  T
C377        N379   1.157       .  T
C378        N380   1.158       .  T
C383        C384   1.417       .  A
C383        C388   1.415       .  A
C384        C385   1.409       .  A
C384        C389   1.453       .  S
C385        C386   1.415       .  A
C385        C392   1.453       .  S
C386        C387   1.414       .  A
C387        C388   1.413       .  A
C387        C390   1.451       .  S
C388        C391   1.451       .  S
C389        N396   1.157       .  T
C390        N395   1.157       .  T
C391        N393   1.157       .  T
C392        N394   1.158       .  T
C397        C398   1.415       .  A
C397        C402   1.414       .  A
C398        C399   1.408       .  A
C398        C403   1.453       .  S
C399        C400   1.414       .  A
C399        C406   1.453       .  S
C400        C401   1.414       .  A
C401        C402   1.411       .  A
C401        C404   1.452       .  S
C402        C405   1.452       .  S
C403        N410   1.157       .  T
C404        N409   1.157       .  T
C405        N407   1.157       .  T
C406        N408   1.157       .  T
C411        C412   1.417       .  A
C411        C416   1.417       .  A
C412        C413   1.409       .  A
C412        C417   1.453       .  S
C413        C414   1.417       .  A
C413        C420   1.453       .  S
C414        C415   1.416       .  A
C415        C416   1.414       .  A
C415        C418   1.451       .  S
C416        C419   1.452       .  S
C417        N424   1.158       .  T
C418        N423   1.157       .  T
C419        N421   1.157       .  T
C420        N422   1.157       .  T
C425        C426   1.422       .  A
C425        C430   1.417       .  A
C426        C427   1.414       .  A
C426        C431   1.453       .  S
C427        C428   1.413       .  A
C427        C434   1.452       .  S
C428        C429   1.414       .  A
C429        C430   1.414       .  A
C429        C432   1.452       .  S
C430        C433   1.451       .  S
C431        N438   1.157       .  T
C432        N437   1.157       .  T
C433        N435   1.157       .  T
C434        N436   1.157       .  T
C439        C440   1.415       .  A
C439        C444   1.413   1_556  A
C440        C441   1.410       .  A
C440        C445   1.451       .  S
C441        C442   1.412   1_556  A
C441        C448   1.452       .  S
C442        C443   1.411       .  A
C443        C444   1.404       .  A
C443        C446   1.453       .  S
C444        C447   1.453       .  S
C445        N452   1.157       .  T
C446        N451   1.157   1_655  T
C447        N449   1.157       .  T
C448        N450   1.157   1_655  T
C453        C454   1.416       .  A
C453        C458   1.420       .  A
C454        C455   1.412       .  A
C454        C459   1.452       .  S
C455        C456   1.418       .  A
C455        C462   1.453       .  S
C456        C457   1.413       .  A
C457        C458   1.412       .  A
C457        C460   1.452       .  S
C458        C461   1.452       .  S
C459        N466   1.157       .  T
C460        N465   1.157       .  T
C461        N463   1.157       .  T
C462        N464   1.157       .  T
C467        C468   1.416       .  A
C467        C472   1.414       .  A
C468        C469   1.418       .  A
C468        C473   1.449       .  S
C469        C470   1.412       .  A
C469        C476   1.450       .  S
C470        C471   1.411       .  A
C471        C472   1.409       .  A
C471        C474   1.452       .  S
C472        C475   1.452       .  S
C473        N480   1.157       .  T
C474        N479   1.157       .  T
C475        N477   1.157       .  T
C476        N478   1.157       .  T
C481        C482   1.415       .  A
C481        C486   1.414       .  A
C482        C483   1.417       .  A
C482        C487   1.449       .  S
C483        C484   1.414       .  A
C483        C490   1.450       .  S
C484        C485   1.413       .  A
C485        C486   1.408       .  A
C485        C488   1.453       .  S
C486        C489   1.452       .  S
C487        N494   1.157       .  T
C488        N493   1.157       .  T
C489        N491   1.157       .  T
C490        N492   1.157       .  T
C495        C496   1.416       .  A
C495        C500   1.420       .  A
C496        C497   1.415       .  A
C496        C501   1.451       .  S
C497        C498   1.415       .  A
C497        C504   1.452       .  S
C498        C499   1.411       .  A
C499        C500   1.410       .  A
C499        C502   1.453       .  S
C500        C503   1.453       .  S
C501        N508   1.158       .  T
C502        N507   1.157       .  T
C503        N505   1.157       .  T
C504        N506   1.157       .  T
C509        C510   1.413       .  A
C509        C514   1.413       .  A
C510        C511   1.410       .  A
C510        C515   1.451       .  S
C511        C512   1.412       .  A
C511        C518   1.452       .  S
C512        C513   1.414       .  A
C513        C514   1.413       .  A
C513        C516   1.451       .  S
C514        C517   1.452       .  S
C515        N522   1.157       .  T
C516        N521   1.157       .  T
C517        N519   1.157       .  T
C518        N520   1.157       .  T
C523        C524   1.414       .  A
C523        C528   1.415       .  A
C524        C525   1.406       .  A
C524        C529   1.453       .  S
C525        C526   1.414       .  A
C525        C532   1.454       .  S
C526        C527   1.414       .  A
C527        C528   1.418       .  A
C527        C530   1.450       .  S
C528        C531   1.450       .  S
C529        N536   1.157       .  T
C530        N535   1.157       .  T
C531        N533   1.157       .  T
C532        N534   1.157       .  T
C537        C538   1.411       .  A
C537        C542   1.411       .  A
C538        C539   1.416       .  A
C538        C543   1.449       .  S
C539        C540   1.414       .  A
C539        C546   1.449       .  S
C540        C541   1.415       .  A
C541        C542   1.404       .  A
C541        C544   1.452       .  S
C542        C545   1.455       .  S
C543        N550   1.157       .  T
C544        N549   1.157       .  T
C545        N547   1.157       .  T
C546        N548   1.157       .  T
C551        C552   1.415       .  A
C551        C556   1.414       .  A
C552        C553   1.410       .  A
C552        C557   1.453       .  S
C553        C554   1.417       .  A
C553        C560   1.452       .  S
C554        C555   1.416       .  A
C555        C556   1.411       .  A
C555        C558   1.452       .  S
C556        C559   1.452       .  S
C557        N564   1.158       .  T
C558        N563   1.157       .  T
C559        N561   1.157       .  T
C560        N562   1.158       .  T
C565        C566   1.417       .  A
C565        C570   1.419       .  A
C566        C567   1.412       .  A
C566        C571   1.452       .  S
C567        C568   1.415       .  A
C567        C574   1.452       .  S
C568        C569   1.415       .  A
C569        C570   1.409       .  A
C569        C572   1.454       .  S
C570        C573   1.453       .  S
C571        N578   1.157       .  T
C572        N577   1.158       .  T
C573        N575   1.158       .  T
C574        N576   1.157       .  T
C579        C580   1.412       .  A
C579        C584   1.412       .  A
C580        C581   1.415       .  A
C580        C585   1.450       .  S
C581        C582   1.414       .  A
C581        C588   1.450       .  S
C582        C583   1.414       .  A
C583        C584   1.407       .  A
C583        C586   1.452       .  S
C584        C587   1.454       .  S
C585        N592   1.157       .  T
C586        N591   1.157       .  T
C587        N589   1.158       .  T
C588        N590   1.157       .  T
C593        C594   1.421       .  A
C593        C598   1.415       .  A
C594        C595   1.410       .  A
C594        C599   1.453       .  S
C595        C596   1.412       .  A
C595        C602   1.453       .  S
C596        C597   1.416       .  A
C597        C598   1.414       .  A
C597        C600   1.452       .  S
C598        C601   1.451       .  S
C599        N606   1.158       .  T
C600        N605   1.158       .  T
C601        N603   1.157       .  T
C602        N604   1.157       .  T
C607        C608   1.413       .  A
C607        C612   1.412       .  A
C608        C609   1.410       .  A
C608        C613   1.452       .  S
C609        C610   1.413       .  A
C609        C616   1.453       .  S
C610        C611   1.414       .  A
C611        C612   1.416       .  A
C611        C614   1.449       .  S
C612        C615   1.450       .  S
C613        N620   1.157       .  T
C614        N619   1.157       .  T
C615        N617   1.157       .  T
C616        N618   1.158       .  T
C621        C622   1.416       .  A
C621        C626   1.415       .  A
C622        C623   1.413       .  A
C622        C627   1.452       .  S
C623        C624   1.413       .  A
C623        C630   1.452       .  S
C624        C625   1.414       .  A
C625        C626   1.409       .  A
C625        C628   1.452       .  S
C626        C629   1.453       .  S
C627        N634   1.157       .  T
C628        N633   1.157       .  T
C629        N631   1.157       .  T
C630        N632   1.157       .  T
C635        C636   1.413       .  A
C635        C640   1.414       .  A
C636        C637   1.414       .  A
C636        C641   1.451       .  S
C637        C638   1.416       .  A
C637        C644   1.451       .  S
C638        C639   1.417       .  A
C639        C640   1.412       .  A
C639        C642   1.452       .  S
C640        C643   1.453       .  S
C641        N648   1.157       .  T
C642        N647   1.158       .  T
C643        N645   1.158       .  T
C644        N646   1.157       .  T
C649        C650   1.414       .  A
C649        C654   1.415       .  A
C650        C651   1.408       .  A
C650        C655   1.454       .  S
C651        C652   1.415       .  A
C651        C658   1.453       .  S
C652        C653   1.415       .  A
C653        C654   1.420       .  A
C653        C656   1.450       .  S
C654        C657   1.449       .  S
C655        N662   1.157       .  T
C656        N661   1.157       .  T
C657        N659   1.157       .  T
C658        N660   1.157       .  T
C663        C664   1.416       .  A
C663        C668   1.413       .  A
C664        C665   1.411       .  A
C664        C669   1.451       .  S
C665        C666   1.413       .  A
C665        C672   1.452       .  S
C666        C667   1.414       .  A
C667        C668   1.407       .  A
C667        C670   1.453       .  S
C668        C671   1.453       .  S
C669        N676   1.158       .  T
C670        N675   1.158       .  T
C671        N673   1.157       .  T
C672        N674   1.157       .  T
C677        C678   1.414       .  A
C677        C682   1.416       .  A
C678        C679   1.408       .  A
C678        C683   1.453       .  S
C679        C680   1.414       .  A
C679        C686   1.453       .  S
C680        C681   1.414       .  A
C681        C682   1.418       .  A
C681        C684   1.450       .  S
C682        C685   1.450       .  S
C683        N690   1.157       .  T
C684        N689   1.157       .  T
C685        N687   1.157       .  T
C686        N688   1.157       .  T
C691        C692   1.413       .  A
C691        C696   1.413       .  A
C692        C693   1.411       .  A
C692        C697   1.452       .  S
C693        C694   1.416       .  A
C693        C700   1.451       .  S
C694        C695   1.416       .  A
C695        C696   1.411       .  A
C695        C698   1.451       .  S
C696        C699   1.452       .  S
C697        N704   1.157       .  T
C698        N703   1.157       .  T
C699        N701   1.157       .  T
C700        N702   1.157       .  T
C705        C706   1.414       .  A
C705        C710   1.414       .  A
C706        C707   1.408       .  A
C706        C711   1.452       .  S
C707        C708   1.412       .  A
C707        C714   1.453       .  S
C708        C709   1.413       .  A
C709        C710   1.410       .  A
C709        C712   1.451       .  S
C710        C713   1.451       .  S
C711        N718   1.157       .  T
C712        N717   1.158       .  T
C713        N715   1.157       .  T
C714        N716   1.157       .  T
C719        C720   1.413   1_554  A
C719        C724   1.415       .  A
C720        C721   1.412       .  A
C720        C725   1.453       .  S
C721        C722   1.415   1_556  A
C721        C728   1.450       .  S
C722        C723   1.413       .  A
C723        C724   1.409       .  A
C723        C726   1.454       .  S
C724        C727   1.451       .  S
C725        N732   1.156       .  T
C726        N731   1.156       .  T
C727        N729   1.159       .  T
C728        N730   1.159       .  T
C733        C734   1.417       .  A
C733        C738   1.413       .  A
C734        C735   1.414       .  A
C734        C739   1.452       .  S
C735        C736   1.415       .  A
C735        C742   1.452       .  S
C736        C737   1.420       .  A
C737        C738   1.413       .  A
C737        C740   1.452       .  S
C738        C741   1.452       .  S
C739        N746   1.157       .  T
C740        N745   1.158       .  T
C741        N743   1.157       .  T
C742        N744   1.157       .  T
C747        C748   1.413       .  A
C747        C752   1.417       .  A
C748        C749   1.412       .  A
C748        C753   1.452       .  S
C749        C750   1.420       .  A
C749        C756   1.453       .  S
C750        C751   1.416       .  A
C751        C752   1.412       .  A
C751        C754   1.451       .  S
C752        C755   1.453       .  S
C753        N760   1.157       .  T
C754        N759   1.157       .  T
C755        N757   1.158       .  T
C756        N758   1.158       .  T
C761        C762   1.413   1_564  A
C761        C766   1.414       .  A
C762        C763   1.409       .  A
C762        C767   1.452   1_545  S
C763        C764   1.415   1_556  A
C763        C770   1.452       .  S
C764        C765   1.414       .  A
C765        C766   1.407   1_545  A
C765        C768   1.453       .  S
C766        C769   1.453       .  S
C767        N774   1.157       .  T
C768        N773   1.157       .  T
C769        N771   1.158       .  T
C770        N772   1.157       .  T
C775        C776   1.420       .  A
C775        C780   1.416       .  A
C776        C777   1.412       .  A
C776        C781   1.453       .  S
C777        C778   1.413       .  A
C777        C784   1.452       .  S
C778        C779   1.415       .  A
C779        C780   1.413       .  A
C779        C782   1.452       .  S
C780        C783   1.451       .  S
C781        N788   1.157       .  T
C782        N787   1.157       .  T
C783        N785   1.157       .  T
C784        N786   1.157       .  T
C789        C790   1.411       .  A
C789        C794   1.416       .  A
C790        C791   1.409       .  A
C790        C795   1.453       .  S
C791        C792   1.421       .  A
C791        C798   1.453       .  S
C792        C793   1.416       .  A
C793        C794   1.418       .  A
C793        C796   1.450       .  S
C794        C797   1.451       .  S
C795        N802   1.157       .  T
C796        N801   1.157       .  T
C797        N799   1.158       .  T
C798        N800   1.157       .  T
C803        C804   1.423       .  A
C803        C808   1.419       .  A
C804        C805   1.412       .  A
C804        C809   1.452       .  S
C805        C806   1.410       .  A
C805        C812   1.453       .  S
C806        C807   1.414       .  A
C807        C808   1.414       .  A
C807        C810   1.453       .  S
C808        C811   1.451       .  S
C809        N816   1.158       .  T
C810        N815   1.158       .  T
C811        N813   1.157       .  T
C812        N814   1.157       .  T
C817        C818   1.413       .  A
C817        C822   1.416       .  A
C818        C819   1.411       .  A
C818        C823   1.453       .  S
C819        C820   1.422       .  A
C819        C826   1.453       .  S
C820        C821   1.418       .  A
C821        C822   1.412       .  A
C821        C824   1.452       .  S
C822        C825   1.452       .  S
C823        N830   1.157       .  T
C824        N829   1.157       .  T
C825        N827   1.158       .  T
C826        N828   1.158       .  T
C831        C832   1.413       .  A
C831        C836   1.414   1_556  A
C832        C833   1.413       .  A
C832        C837   1.451       .  S
C833        C834   1.416       .  A
C833        C840   1.451       .  S
C834        C835   1.414   1_556  A
C835        C836   1.407       .  A
C835        C838   1.453       .  S
C836        C839   1.453       .  S
C837        N844   1.158       .  T
C838        N843   1.157       .  T
C839        N841   1.158       .  T
C840        N842   1.157       .  T
C845        C846   1.413   1_554  A
C845        C850   1.412       .  A
C846        C847   1.411       .  A
C846        C851   1.451       .  S
C847        C848   1.415   1_656  A
C847        C854   1.451   1_655  S
C848        C849   1.414   1_455  A
C849        C850   1.405       .  A
C849        C852   1.453   1_655  S
C850        C853   1.454       .  S
C851        N858   1.157       .  T
C852        N857   1.157       .  T
C853        N855   1.158       .  T
C854        N856   1.157       .  T
C859        C860   1.417       .  A
C859        C864   1.421       .  A
C860        C861   1.413       .  A
C860        C865   1.451       .  S
C861        C862   1.415       .  A
C861        C868   1.453       .  S
C862        C863   1.411       .  A
C863        C864   1.412       .  A
C863        C866   1.453       .  S
C864        C867   1.452       .  S
C865        N872   1.157       .  T
C866        N871   1.157       .  T
C867        N869   1.157       .  T
C868        N870   1.158       .  T
C873        C874   1.416       .  A
C873        C878   1.413       .  A
C874        C875   1.415       .  A
C874        C879   1.452       .  S
C875        C876   1.419       .  A
C875        C882   1.451       .  S
C876        C877   1.422       .  A
C877        C878   1.414       .  A
C877        C880   1.452       .  S
C878        C881   1.452       .  S
C879        N886   1.157       .  T
C880        N885   1.157       .  T
C881        N883   1.157       .  T
C882        N884   1.157       .  T
C887        C888   1.412   1_554  A
C887        C892   1.411       .  A
C888        C889   1.412       .  A
C888        C893   1.451       .  S
C889        C890   1.414   1_556  A
C889        C896   1.451       .  S
C890        C891   1.413       .  A
C891        C892   1.405       .  A
C891        C894   1.453       .  S
C892        C895   1.453       .  S
C893        N900   1.158       .  T
C894        N899   1.157       .  T
C895        N897   1.157       .  T
C896        N898   1.157       .  T
C901        C902   1.412       .  A
C901        C906   1.412       .  A
C902        C903   1.414       .  A
C902        C907   1.451       .  S
C903        C904   1.417       .  A
C903        C910   1.451       .  S
C904        C905   1.422       .  A
C905        C906   1.413       .  A
C905        C908   1.452       .  S
C906        C909   1.453       .  S
C907        N914   1.157       .  T
C908        N913   1.157       .  T
C909        N911   1.158       .  T
C910        N912   1.157       .  T
C915        C916   1.419       .  A
C915        C920   1.415       .  A
C916        C917   1.413       .  A
C916        C921   1.452       .  S
C917        C918   1.414       .  A
C917        C924   1.452       .  S
C918        C919   1.417       .  A
C919        C920   1.414       .  A
C919        C922   1.450       .  S
C920        C923   1.452       .  S
C921        N928   1.157       .  T
C922        N927   1.157       .  T
C923        N925   1.157       .  T
C924        N926   1.157       .  T
C929        C930   1.414       .  A
C929        C934   1.413   1_556  A
C930        C931   1.410       .  A
C930        C935   1.452       .  S
C931        C932   1.415       .  A
C931        C938   1.453       .  S
C932        C933   1.413   1_556  A
C933        C934   1.409       .  A
C933        C936   1.451       .  S
C934        C937   1.451       .  S
C935        N942   1.158       .  T
C936        N941   1.157       .  T
C937        N939   1.157       .  T
C938        N940   1.158       .  T
C943        C944   1.414       .  A
C943        C948   1.414   1_554  A
C944        C945   1.411   1_545  A
C944        C949   1.452       .  S
C945        C946   1.414       .  A
C945        C952   1.452       .  S
C946        C947   1.412   1_554  A
C947        C948   1.407   1_565  A
C947        C950   1.453       .  S
C948        C951   1.452       .  S
C949        N956   1.157       .  T
C950        N955   1.157       .  T
C951        N953   1.157       .  T
C952        N954   1.158       .  T
C957        C958   1.418       .  A
C957        C962   1.422       .  A
C958        C959   1.413       .  A
C958        C963   1.451       .  S
C959        C960   1.416       .  A
C959        C966   1.453       .  S
C960        C961   1.411       .  A
C961        C962   1.412       .  A
C961        C964   1.452       .  S
C962        C965   1.452       .  S
C963        N970   1.158       .  T
C964        N969   1.157       .  T
C965        N967   1.157       .  T
C966        N968   1.157       .  T
C971        C972   1.415       .  A
C971        C976   1.422       .  A
C972        C973   1.412       .  A
C972        C977   1.451       .  S
C973        C974   1.414       .  A
C973        C980   1.452       .  S
C974        C975   1.410       .  A
C975        C976   1.412       .  A
C975        C978   1.452       .  S
C976        C979   1.452       .  S
C977        N984   1.157       .  T
C978        N983   1.157       .  T
C979        N981   1.157       .  T
C980        N982   1.157       .  T
