geometry optimzed in LAMMPS
_audit_creation_date              2020-11-30 
_audit_creation_method            'lammps2cif' 
_symmetry_space_group_name_H-M    'P1' 
_symmetry_Int_Tables_number       1 
_symmetry_cell_setting            triclinic 
loop_ 
_symmetry_equiv_pos_as_xyz 
  x,y,z 
_cell_length_a                    70.64687488 
_cell_length_b                    70.92426521028062 
_cell_length_c                    70.78034958209233 
_cell_angle_alpha                 90.06594231914367 
_cell_angle_beta                  90.03021215632899 
_cell_angle_gamma                 90.16517540072114 
loop_ 
_atom_site_label 
_atom_site_type_symbol 
_atom_site_fract_x 
_atom_site_fract_y 
_atom_site_fract_z 
_atom_site_charge 
O1          O  0.28503418  0.74019234  0.48188329    -0.77500
C2          C  0.29190229  0.70865154  0.53427411     0.83500
O3          O  0.26333687  0.67257915  0.47718634    -0.78600
O4          O  0.23059789  0.69844249  0.53672807    -0.80100
O5          O  0.22590314  0.75126592  0.50521725    -0.79900
O6          O  0.25708962  0.75011652  0.47122404    -0.78500
Zn7        Zn  0.27925552  0.71479534  0.49349997     1.55700
O8          O  0.24012814  0.74450432  0.53251271    -0.79900
Cd9        Cd  0.23821765  0.73298049  0.48580409     1.59700
Cd10       Cd  0.24296963  0.68757607  0.49273578     1.59600
O11         O  0.21733824  0.72117164  0.46815782    -0.79900
O12         O  0.25278875  0.71314231  0.49938304    -1.90400
Cd13       Cd  0.25013070  0.71747273  0.52682825     1.59900
O14         O  0.22043232  0.69057731  0.47455204    -0.79900
O15         O  0.27533389  0.71175145  0.54068075    -0.78500
C16         C  0.27907572  0.67849697  0.47043225     0.84000
C17         C  0.27500570  0.75210822  0.47283324     0.83600
O18         O  0.29540853  0.70989439  0.51664457    -0.77500
C19         C  0.22947221  0.75505997  0.52251168     0.84500
O20         O  0.28590411  0.69451714  0.47499568    -0.77600
C21         C  0.21210110  0.70400949  0.46602465     0.84600
C22         C  0.22540396  0.68190820  0.53185447     0.84900
O23         O  0.23117393  0.67427550  0.51650158    -0.80000
O24         O  0.79086406  0.71089495  0.98140517    -0.77500
C25         C  0.76951175  0.74927162  0.02733609     0.83500
O26         O  0.76209616  0.66947521  0.01896553    -0.78600
O27         O  0.71428553  0.71549098  0.03237871    -0.80100
O28         O  0.73255080  0.74061552  0.96802139    -0.79900
O29         O  0.77079300  0.71237264  0.95738900    -0.78500
Zn30       Zn  0.77490851  0.71321050  0.00486376     1.55700
O31         O  0.71931539  0.74663370  0.99599521    -0.79900
Cd32       Cd  0.74536103  0.71484700  0.97217643     1.59700
Cd33       Cd  0.74003071  0.68399221  0.00573927     1.59600
O34         O  0.72739104  0.69480792  0.96153018    -0.79900
O35         O  0.74852116  0.71014277  0.99953504    -1.90400
Cd36       Cd  0.73351892  0.72887770  0.01430399     1.59900
O37         O  0.72777468  0.67093284  0.98199674    -0.79900
O38         O  0.75164209  0.74696516  0.02879896    -0.78500
C39         C  0.77763608  0.67599350  0.02562286     0.84000
C40         C  0.78758299  0.71038499  0.96372379     0.83600
O41         O  0.77973061  0.73789920  0.01786016    -0.77500
C42         C  0.72179551  0.75050517  0.97856292     0.84500
O43         O  0.78330249  0.69262611  0.02189668    -0.77600
C44         C  0.72242192  0.67822534  0.96634270     0.84600
C45         C  0.71020255  0.69809110  0.03485053     0.84900
O46         O  0.71871677  0.68510163  0.02575800    -0.80000
O47         O  0.19965289  0.52364998  0.20592329    -0.77500
C48         C  0.24081463  0.47948079  0.22590945     0.83500
O49         O  0.16034564  0.48583772  0.23336264    -0.78600
O50         O  0.20762674  0.47379807  0.28218053    -0.80100
O51         O  0.23233135  0.53774989  0.26342257    -0.79900
O52         O  0.20231275  0.54761181  0.22589991    -0.78500
Zn53       Zn  0.20396436  0.50042567  0.22153184     1.55700
O54         O  0.23974630  0.50959407  0.27524225    -0.79900
Cd55       Cd  0.20597188  0.53303210  0.25118652     1.59700
Cd56       Cd  0.17504569  0.49917950  0.25577746     1.59600
O57         O  0.18568359  0.54334558  0.26907287    -0.79900
O58         O  0.20136692  0.50570701  0.24778752    -1.90400
Cd59       Cd  0.22080203  0.49111550  0.26213626     1.59900
O60         O  0.16171232  0.52284270  0.26786125    -0.79900
O61         O  0.23792508  0.47608442  0.24339687    -0.78500
C62         C  0.16739775  0.47851429  0.21838234     0.84000
C63         C  0.19921303  0.54127236  0.20930007     0.83600
O64         O  0.22955875  0.48967896  0.21628871    -0.77500
C65         C  0.24318880  0.52718123  0.27319978     0.84500
O66         O  0.18436072  0.48191025  0.21337158    -0.77600
C67         C  0.16882824  0.53856162  0.27335782     0.84600
C68         C  0.19017212  0.47120105  0.28631381     0.84900
O69         O  0.17697264  0.47968577  0.27744437    -0.80000
O70         O  0.52140760  0.21638777  0.19888450    -0.77500
C71         C  0.47570021  0.23466475  0.24076352     0.83500
O72         O  0.47786265  0.24236750  0.16180412    -0.78600
O73         O  0.46786929  0.29090035  0.20755030    -0.80100
O74         O  0.53350509  0.27491406  0.22866845    -0.79900
O75         O  0.54419575  0.23794092  0.19706854    -0.78500
Zn76       Zn  0.49733375  0.23079137  0.20404985     1.55700
O77         O  0.50472034  0.28440334  0.23773489    -0.79900
Cd78       Cd  0.52828198  0.26253216  0.20251215     1.59700
Cd79       Cd  0.49253601  0.26460723  0.17449976     1.59600
O80         O  0.53505499  0.28237820  0.18231428    -0.79900
O81         O  0.50087815  0.25718439  0.20031282    -1.90400
Cd82       Cd  0.48598930  0.27096882  0.21985798     1.59900
O83         O  0.51464349  0.27670649  0.15886731    -0.79900
O84         O  0.47203549  0.25201866  0.23761227    -0.78500
C85         C  0.47250309  0.22682238  0.16925107     0.84000
C86         C  0.53866160  0.22077620  0.19585026     0.83600
O87         O  0.48657860  0.22531266  0.22986273    -0.77500
C88         C  0.52260093  0.28366553  0.24011462     0.84500
O89         O  0.47847303  0.22166832  0.18538042    -0.77600
C90         C  0.52918010  0.28521141  0.16552024     0.84600
C91         C  0.46508734  0.29510042  0.19019929     0.84900
O92         O  0.47336700  0.28621990  0.17692560    -0.80000
O93         O  0.29756223  0.20898684  0.48117599    -0.77500
C94         C  0.27552824  0.24782476  0.52635719     0.83500
O95         O  0.26862548  0.16800945  0.51851435    -0.78600
O96         O  0.21918884  0.21470534  0.52999935    -0.80100
O97         O  0.23900491  0.23858333  0.46538665    -0.79900
O98         O  0.27784701  0.21007145  0.45682149    -0.78500
Zn99       Zn  0.28139215  0.21161824  0.50436527     1.55700
O100        O  0.22706172  0.24610342  0.49359566    -0.79900
Cd101      Cd  0.25204114  0.21278892  0.47081881     1.59700
Cd102      Cd  0.24662211  0.18279461  0.50562180     1.59600
O103        O  0.23506859  0.19169396  0.46039277    -0.79900
O104        O  0.25499659  0.20870020  0.49848824    -1.90400
Cd105      Cd  0.23963399  0.22764286  0.51256656     1.59900
O106        O  0.23490697  0.16913304  0.48239760    -0.79900
O107        O  0.25770160  0.24514763  0.52774369    -0.78500
C108        C  0.28440731  0.17420593  0.52485176     0.84000
C109        C  0.29451764  0.20811528  0.46347687     0.83600
O110        O  0.28602742  0.23655729  0.51703245    -0.77500
C111        C  0.22920790  0.24941365  0.47599190     0.84500
O112        O  0.29002050  0.19091735  0.52139302    -0.77600
C113        C  0.23027660  0.17532594  0.46610221     0.84600
C114        C  0.21551645  0.19730939  0.53320404     0.84900
O115        O  0.22491679  0.18422172  0.52519120    -0.80000
O116        O  0.72954019  0.52558290  0.21421141    -0.77500
C117        C  0.69969864  0.47180328  0.20804947     0.83500
O118        O  0.66083397  0.52741851  0.23510808    -0.78600
O119        O  0.68999096  0.47091267  0.26994191    -0.80100
O120        O  0.73968366  0.50419337  0.27481972    -0.79900
O121        O  0.73972833  0.53599801  0.24219369    -0.78500
Zn122      Zn  0.70419027  0.51326517  0.21994364     1.55700
O123        O  0.73511350  0.47710793  0.25942427    -0.79900
Cd124      Cd  0.72177946  0.52260657  0.26099012     1.59700
Cd125      Cd  0.67674889  0.51404965  0.25638961     1.59600
O126        O  0.70966575  0.54097652  0.28081391    -0.79900
O127        O  0.70243856  0.50809583  0.24646589    -1.90400
Cd128      Cd  0.70782668  0.48094484  0.24950105     1.59900
O129        O  0.67915069  0.53373395  0.27778382    -0.79900
O130        O  0.70259156  0.46576444  0.22477154    -0.78500
C131        C  0.66646542  0.53400290  0.21920223     0.84000
C132        C  0.74174019  0.53428432  0.22435421     0.83600
O133        O  0.70046495  0.48941103  0.20441885    -0.77500
C134        C  0.74456558  0.48733019  0.27092824     0.84500
O135        O  0.68289738  0.53039562  0.21270558    -0.77600
C136        C  0.69240641  0.54290977  0.28587404     0.84600
C137        C  0.67361446  0.47542156  0.27594657     0.84900
O138        O  0.66519425  0.49034110  0.27019191    -0.80000
O139        O  0.01715087  0.29335295  0.27023203    -0.77500
C140        C  0.96335296  0.29983907  0.29992073     0.83500
O141        O  0.01724672  0.27237927  0.33852892    -0.78600
O142        O  0.96058815  0.23855171  0.30920080    -0.80100
O143        O  0.99527649  0.23341317  0.25931230    -0.79900
O144        O  0.02817034  0.26549516  0.26081453    -0.78500
Zn145      Zn  0.00441967  0.28764698  0.29520540     1.55700
O146        O  0.96786439  0.24828515  0.26384722    -0.79900
Cd147      Cd  0.01345215  0.24691771  0.27790631     1.59700
Cd148      Cd  0.00386517  0.25155439  0.32258395     1.59600
O149        O  0.03123029  0.22730883  0.29074973    -0.79900
O150        O  0.99863447  0.26131844  0.29681631    -1.90400
Cd151      Cd  0.97150379  0.25836367  0.29112837     1.59900
O152        O  0.02309455  0.22978048  0.32105655    -0.79900
O153        O  0.95708695  0.28328335  0.29653976    -0.78500
C154        C  0.02454697  0.28792044  0.33295532     0.84000
C155        C  0.02653842  0.28326571  0.25858841     0.83600
O156        O  0.98101161  0.30347584  0.29917555    -0.77500
C157        C  0.97833663  0.23713366  0.25429883     0.84500
O158        O  0.02159786  0.29446820  0.31646956    -0.77600
C159        C  0.03274474  0.22209481  0.30795377     0.84600
C160        C  0.96471700  0.23347583  0.32595888     0.84900
O161        O  0.97966082  0.23939058  0.33430564    -0.80000
O162        O  0.79743888  0.02529490  0.29422781    -0.77500
C163        C  0.75607915  0.98047166  0.27461655     0.83500
O164        O  0.83588460  0.98781443  0.26309532    -0.78600
O165        O  0.78744002  0.97549879  0.21766106    -0.80100
O166        O  0.76261211  0.03937886  0.23758979    -0.79900
O167        O  0.79425384  0.04953512  0.27470603    -0.78500
Zn168      Zn  0.79291649  0.00214049  0.27834265     1.55700
O169        O  0.75600283  0.01106589  0.22530054    -0.79900
Cd170      Cd  0.78927842  0.03512419  0.24931680     1.59700
Cd171      Cd  0.82023768  0.00193985  0.24228483     1.59600
O172        O  0.80820351  0.04564617  0.23021601    -0.79900
O173        O  0.79445114  0.00785965  0.25202143    -1.90400
Cd174      Cd  0.77506233  0.99296982  0.23801128     1.59900
O175        O  0.83260720  0.02580653  0.22993082    -0.79900
O176        O  0.75835916  0.97811327  0.25689029    -0.78500
C177        C  0.83002449  0.98068053  0.27864447     0.84000
C178        C  0.79789490  0.04296969  0.29111324     0.83600
O179        O  0.76764747  0.99033160  0.28437388    -0.77500
C180        C  0.75218637  0.02849257  0.22757956     0.84500
O181        O  0.81359697  0.98428164  0.28511033    -0.77600
C182        C  0.82472706  0.04116489  0.22468061     0.84600
C183        C  0.80464080  0.97384504  0.21232537     0.84900
O184        O  0.81795985  0.98307876  0.22024366    -0.80000
O185        O  0.71875019  0.77420058  0.48802289    -0.77500
C186        C  0.71432970  0.80537026  0.54122174     0.83500
O187        O  0.73737580  0.84254577  0.48277168    -0.78600
O188        O  0.77574754  0.81865529  0.53931461    -0.80100
O189        O  0.77834332  0.76471122  0.50671240    -0.79900
O190        O  0.74580290  0.76607095  0.47401359    -0.78500
Zn191      Zn  0.72442934  0.79971060  0.49951945     1.55700
O192        O  0.76770756  0.77235304  0.53543137    -0.79900
Cd193      Cd  0.76514774  0.78325379  0.48825607     1.59700
Cd194      Cd  0.75953921  0.82831781  0.49611543     1.59600
O195        O  0.78488647  0.79575097  0.46962392    -0.79900
O196        O  0.75119283  0.80251487  0.50347438    -1.90400
Cd197      Cd  0.75609855  0.79888664  0.53085211     1.59900
O198        O  0.78050367  0.82616697  0.47594102    -0.79900
O199        O  0.73148614  0.80367994  0.54668251    -0.78500
C200        C  0.72133127  0.83628383  0.47714469     0.84000
C201        C  0.72827098  0.76317118  0.47741927     0.83600
O202        O  0.70990698  0.80350234  0.52385351    -0.77500
C203        C  0.77677634  0.76133628  0.52437459     0.84500
O204        O  0.71541327  0.81994554  0.48182709    -0.77600
C205        C  0.78897017  0.81314336  0.46688726     0.84600
C206        C  0.77949560  0.83540375  0.53393412     0.84900
O207        O  0.77228620  0.84243327  0.51893088    -0.80000
C208        C  0.91793713  0.85112110  0.35337726     0.87500
C209        C  0.93021412  0.86267354  0.36726162    -0.52800
C210        C  0.92032653  0.87573303  0.37759873     0.10400
C211        C  0.89884958  0.87569372  0.37331697     0.21300
C212        C  0.90266788  0.84231948  0.36615567    -0.53500
C213        C  0.89260067  0.85504117  0.37656822     0.10500
C214        C  0.90754159  0.86586690  0.34161467    -0.53000
C215        C  0.89754850  0.87880104  0.35173868     0.11100
H216        H  0.94531259  0.86060367  0.36905997     0.15600
H217        H  0.89061310  0.88602401  0.38170318     0.01300
H218        H  0.90009211  0.82727482  0.36716672     0.15900
H219        H  0.90857618  0.86627181  0.32630428     0.15700
C220        C  0.84412048  0.15441676  0.41850773     0.87500
C221        C  0.83444685  0.14114113  0.40428034    -0.52800
C222        C  0.84666705  0.12999611  0.39428328     0.10400
C223        C  0.86764233  0.13313860  0.39956132     0.21300
C224        C  0.85605938  0.14113643  0.43100008    -0.53500
C225        C  0.86858183  0.13013790  0.42114332     0.10500
C226        C  0.85889285  0.16532202  0.40695968    -0.53000
C227        C  0.87097249  0.15433296  0.39690794     0.11100
H228        H  0.81923405  0.14088119  0.40206811     0.15600
H229        H  0.87768036  0.12436833  0.39134531     0.01300
H230        H  0.85482551  0.14017882  0.44617102     0.15900
H231        H  0.85967702  0.18062774  0.40665712     0.15700
C232        C  0.85674156  0.92661195  0.65773680     0.87500
C233        C  0.86989410  0.91207822  0.66713831    -0.52800
C234        C  0.88076781  0.90206285  0.65468654     0.10400
C235        C  0.87771301  0.90778245  0.63388837     0.21300
C236        C  0.87046475  0.93904110  0.64607390    -0.53500
C237        C  0.88140305  0.92919873  0.63349947     0.10500
C238        C  0.84550420  0.91542404  0.64296887    -0.53000
C239        C  0.85635126  0.90574262  0.63049637     0.11100
H240        H  0.87071893  0.90999909  0.68230724     0.15600
H241        H  0.88630111  0.89950071  0.62373581     0.01300
H242        H  0.87141725  0.95421850  0.64734348     0.15900
H243        H  0.83013547  0.91545098  0.64220835     0.15700
C244        C  0.14561428  0.09298822  0.34459709     0.87500
C245        C  0.12995122  0.08081987  0.35375763    -0.52800
C246        C  0.11882911  0.09041565  0.36628767     0.10400
C247        C  0.12414817  0.11134255  0.36842895     0.21300
C248        C  0.13483252  0.10960879  0.33577800    -0.53500
C249        C  0.12345984  0.11927989  0.34813128     0.10500
C250        C  0.15627548  0.10142753  0.36144042    -0.53000
C251        C  0.14520338  0.11101041  0.37381175     0.11100
H252        H  0.12769524  0.06595478  0.35120903     0.15600
H253        H  0.11523812  0.11878198  0.37891790     0.01300
H254        H  0.13613351  0.11327370  0.32094918     0.15900
H255        H  0.17145967  0.09996499  0.36343800     0.15700
C256        C  0.08526008  0.16099674  0.64650453     0.87500
C257        C  0.10201224  0.16897724  0.63491227    -0.52800
C258        C  0.11077240  0.15610031  0.62336700     0.10400
C259        C  0.10184668  0.13616238  0.62469522     0.21300
C260        C  0.07215867  0.15230729  0.63138570    -0.53500
C261        C  0.08075435  0.13920299  0.62016539     0.10500
C262        C  0.09352896  0.14403146  0.65705570    -0.53000
C263        C  0.10209150  0.13100439  0.64582895     0.11100
H264        H  0.10599292  0.18370866  0.63476361     0.15600
H265        H  0.10863568  0.12523567  0.61578842     0.01300
H266        H  0.05722221  0.15565932  0.63012042     0.15900
H267        H  0.09246073  0.14234682  0.67227851     0.15700
C268        C  0.15522715  0.86193129  0.58147653     0.87500
C269        C  0.14461502  0.87709316  0.56982662    -0.52800
C270        C  0.13194871  0.88754241  0.58014648     0.10400
C271        C  0.13120255  0.88199766  0.60118851     0.21300
C272        C  0.16422792  0.87298334  0.59780004    -0.53500
C273        C  0.15182545  0.88341036  0.60825339     0.10500
C274        C  0.13912727  0.85047213  0.59054133    -0.53000
C275        C  0.12657280  0.86082981  0.60077470     0.11100
H276        H  0.14565458  0.87889185  0.55472686     0.15600
H277        H  0.12107521  0.89036838  0.60971674     0.01300
H278        H  0.17935875  0.87282646  0.60047819     0.15900
H279        H  0.13777662  0.83528738  0.58894584     0.15700
O280        O  0.01536460  0.02328656  0.45710705    -0.77500
C281        C  0.98252658  0.97064908  0.46548536     0.83500
O282        O  0.96405381  0.03959219  0.49867992    -0.78600
O283        O  0.97791995  0.97864362  0.52660789    -0.80100
O284        O  0.04317296  0.99388464  0.51347686    -0.79900
O285        O  0.03905699  0.02608878  0.47759053    -0.78500
Zn286      Zn  0.99350669  0.01220454  0.47189681     1.55700
O287        O  0.02244047  0.97021848  0.51448429    -0.79900
Cd288      Cd  0.02723962  0.01619783  0.50253200     1.59700
Cd289      Cd  0.98328403  0.02462810  0.51531155     1.59600
O290        O  0.02889776  0.03852209  0.52125077    -0.79900
O291        O  0.00013524  0.00887606  0.49844971    -1.90400
Cd292      Cd  0.99719150  0.98166265  0.50499155     1.59900
O293        O  0.99938261  0.04437971  0.53065544    -0.79900
O294        O  0.98704779  0.96602314  0.48229295    -0.78500
C295        C  0.96225125  0.04072018  0.48075804     0.84000
C296        C  0.03222342  0.02838401  0.46106051     0.83600
O297        O  0.98450774  0.98761245  0.45974193    -0.77500
C298        C  0.03903774  0.97676997  0.51735968     0.84500
O299        O  0.97255804  0.03111393  0.46958558    -0.77600
C300        C  0.01712141  0.04804246  0.53098095     0.84600
C301        C  0.96781593  0.98963517  0.53662914     0.84900
O302        O  0.96815594  0.00749780  0.53418762    -0.80000
O303        O  0.70323998  0.30255814  0.48076853    -0.77500
C304        C  0.72685277  0.26318537  0.52454033     0.83500
O305        O  0.72932161  0.34412947  0.51684535    -0.78600
O306        O  0.77979159  0.29969021  0.53145622    -0.80100
O307        O  0.76155500  0.27339881  0.46644328    -0.79900
O308        O  0.72314212  0.30164031  0.45659042    -0.78500
Zn309      Zn  0.71982069  0.29972080  0.50376376     1.55700
O310        O  0.77705651  0.26884036  0.49354713    -0.79900
Cd311      Cd  0.74886529  0.29935033  0.47084302     1.59700
Cd312      Cd  0.75284628  0.33033521  0.50485409     1.59600
O313        O  0.76649584  0.31985817  0.46036203    -0.79900
O314        O  0.74589908  0.30387357  0.49821601    -1.90400
Cd315      Cd  0.76193717  0.28560111  0.51238849     1.59900
O316        O  0.76588053  0.34327305  0.48145747    -0.79900
O317        O  0.74457233  0.26633457  0.52626588    -0.78500
C318        C  0.71504094  0.33627988  0.52479403     0.84000
C319        C  0.70638045  0.30330835  0.46307140     0.83600
O320        O  0.71617661  0.27437821  0.51538777    -0.77500
C321        C  0.77334632  0.26417069  0.47649091     0.84500
O322        O  0.71107474  0.31899568  0.52204129    -0.77600
C323        C  0.77129315  0.33639636  0.46559773     0.84600
C324        C  0.78228535  0.31721783  0.53501913     0.84900
O325        O  0.77311930  0.32992769  0.52614008    -0.80000
O326        O  0.01911836  0.71303017  0.70139519    -0.77500
C327        C  0.97493688  0.73395148  0.74334306     0.83500
O328        O  0.98093908  0.73952273  0.66285519    -0.78600
O329        O  0.96891823  0.78898735  0.70868236    -0.80100
O330        O  0.03312274  0.77111201  0.73311480    -0.79900
O331        O  0.04306627  0.73329571  0.70293625    -0.78500
Zn332      Zn  0.99574814  0.72851017  0.70650054     1.55700
O333        O  0.00447415  0.78223060  0.74030171    -0.79900
Cd334      Cd  0.02839484  0.75850221  0.70690317     1.59700
Cd335      Cd  0.99377039  0.76237321  0.67672730     1.59600
O336        O  0.03818806  0.77637614  0.68628866    -0.79900
O337        O  0.00091911  0.75465005  0.70282771    -1.90400
Cd338      Cd  0.98610122  0.76906297  0.72174005     1.59900
O339        O  0.01698947  0.77450475  0.66293485    -0.79900
O340        O  0.97089423  0.75095920  0.73913536    -0.78500
C341        C  0.97342743  0.72483689  0.67025496     0.84000
C342        C  0.03676144  0.71663736  0.70013768     0.83600
O343        O  0.98578901  0.72399276  0.73295597    -0.77500
C344        C  0.02212189  0.78065035  0.74380037     0.84500
O345        O  0.97654730  0.72019940  0.68737576    -0.77600
C346        C  0.03278840  0.78038318  0.66958475     0.84600
C347        C  0.96596398  0.79306519  0.69135287     0.84900
O348        O  0.97401609  0.78398244  0.67802163    -0.80000
C349        C  0.14737757  0.59018424  0.65239736     0.87500
C350        C  0.13330490  0.60319515  0.66248458    -0.52800
C351        C  0.12143627  0.61278168  0.65067146     0.10400
C352        C  0.12450611  0.60807917  0.62955555     0.21300
C353        C  0.13482271  0.57704305  0.64024723    -0.53500
C354        C  0.12286773  0.58642727  0.62833586     0.10500
C355        C  0.15738149  0.60274798  0.63794714    -0.53000
C356        C  0.14561735  0.61211224  0.62604294     0.11100
H357        H  0.13347631  0.60535659  0.67767346     0.15600
H358        H  0.11491984  0.61568863  0.61975545     0.01300
H359        H  0.13508130  0.56179574  0.64059671     0.15900
H360        H  0.17270005  0.60399454  0.63707119     0.15700
C361        C  0.15874934  0.35912343  0.41734808     0.87500
C362        C  0.16706753  0.37186317  0.40183162    -0.52800
C363        C  0.15382377  0.38139485  0.39154797     0.10400
C364        C  0.13334864  0.37780852  0.39814797     0.21300
C365        C  0.14682058  0.37292238  0.42944123    -0.53500
C366        C  0.13329786  0.38253826  0.41939516     0.10500
C367        C  0.14411387  0.34668473  0.40732592    -0.53000
C368        C  0.13072569  0.35634558  0.39754091     0.11100
H369        H  0.18212645  0.37388119  0.39961556     0.15600
H370        H  0.12263895  0.38561524  0.38979182     0.01300
H371        H  0.14859791  0.37472851  0.44455639     0.15900
H372        H  0.14403916  0.33139682  0.40838867     0.15700
C373        C  0.84474430  0.64996086  0.58200343     0.87500
C374        C  0.85484982  0.63517956  0.56967378    -0.52800
C375        C  0.86772202  0.62430085  0.57921166     0.10400
C376        C  0.86881501  0.62897958  0.60054052     0.21300
C377        C  0.83577539  0.63833864  0.59800674    -0.53500
C378        C  0.84828254  0.62759803  0.60794745     0.10500
C379        C  0.86077114  0.66096925  0.59160555    -0.53000
C380        C  0.87366076  0.65021066  0.60107086     0.11100
H381        H  0.85288205  0.63442814  0.55449663     0.15600
H382        H  0.87879497  0.61987920  0.60838648     0.01300
H383        H  0.82081392  0.63793564  0.60120467     0.15900
H384        H  0.86172970  0.67623336  0.59081780     0.15700
C385        C  0.85135334  0.42716299  0.34390216     0.87500
C386        C  0.86629308  0.43926678  0.35432930    -0.52800
C387        C  0.87740354  0.42934879  0.36666048     0.10400
C388        C  0.87274656  0.40806586  0.36718086     0.21300
C389        C  0.86284526  0.41149890  0.33440615    -0.53500
C390        C  0.87423957  0.40153213  0.34637877     0.10500
C391        C  0.84051033  0.41739181  0.35987783    -0.53000
C392        C  0.85151311  0.40743859  0.37208710     0.11100
H393        H  0.86761224  0.45439928  0.35312135     0.15600
H394        H  0.88180629  0.39989844  0.37698629     0.01300
H395        H  0.86179259  0.40850212  0.31940028     0.15900
H396        H  0.82524238  0.41837000  0.36144782     0.15700
C397        C  0.91671073  0.35469116  0.64199655     0.87500
C398        C  0.90006547  0.34632120  0.63060354    -0.52800
C399        C  0.89015322  0.35915635  0.61998212     0.10400
C400        C  0.89819548  0.37941803  0.62157684     0.21300
C401        C  0.92890893  0.36475183  0.62686482    -0.53500
C402        C  0.91923202  0.37766682  0.61635486     0.10500
C403        C  0.90786756  0.37085272  0.65333625    -0.53000
C404        C  0.89821886  0.38370322  0.64284615     0.11100
H405        H  0.89644060  0.33144621  0.63108158     0.15600
H406        H  0.89044766  0.39020800  0.61332807     0.01300
H407        H  0.94374533  0.36244056  0.62419997     0.15900
H408        H  0.90910198  0.37199920  0.66860429     0.15700
C409        C  0.08331771  0.66460458  0.35273254     0.87500
C410        C  0.07171699  0.65404085  0.36792483    -0.52800
C411        C  0.08212273  0.64181177  0.37862824     0.10400
C412        C  0.10323510  0.64131168  0.37348670     0.21300
C413        C  0.09944863  0.67405905  0.36380460    -0.53500
C414        C  0.10977846  0.66208735  0.37487991     0.10500
C415        C  0.09280934  0.64861350  0.34161885    -0.53000
C416        C  0.10304709  0.63633966  0.35229088     0.11100
H417        H  0.05661915  0.65487474  0.36986413     0.15600
H418        H  0.11152542  0.63130838  0.38224284     0.01300
H419        H  0.10230584  0.68908779  0.36299423     0.15900
H420        H  0.09114515  0.64688704  0.32645029     0.15700
O421        O  0.01726782  0.54923015  0.48123274    -0.77500
C422        C  0.96589317  0.54153586  0.51547942     0.83500
O423        O  0.03471274  0.50595114  0.53148877    -0.78600
O424        O  0.97161565  0.48002087  0.51802712    -0.80100
O425        O  0.98533453  0.49542758  0.45339002    -0.79900
O426        O  0.01934068  0.52861211  0.45763927    -0.78500
Zn427      Zn  0.00712186  0.53433783  0.50349009     1.55700
O428        O  0.96223819  0.49452078  0.47465912    -0.79900
Cd429      Cd  0.00876768  0.50399614  0.46908293     1.59700
Cd430      Cd  0.01815982  0.49035247  0.51239030     1.59600
O431        O  0.02919414  0.48337933  0.46597288    -0.79900
O432        O  0.00257814  0.50803101  0.49637600    -1.90400
Cd433      Cd  0.97518041  0.50220890  0.49970166     1.59900
O434        O  0.03597636  0.47396337  0.49520425    -0.79900
O435        O  0.96083787  0.52493919  0.51073229    -0.78500
C436        C  0.03679687  0.52375458  0.53348931     0.84000
C437        C  0.02174896  0.54517065  0.46425079     0.83600
O438        O  0.98302094  0.54703845  0.51348590    -0.77500
C439        C  0.96811819  0.49224899  0.45779850     0.84500
O440        O  0.02736002  0.53552683  0.52369005    -0.77600
C441        C  0.03843142  0.47290598  0.47732437     0.84600
C442        C  0.98257362  0.46965754  0.52778989     0.84900
O443        O  0.00053597  0.47192959  0.52748597    -0.80000
C444        C  0.65400743  0.36197372  0.07877447     0.87500
C445        C  0.64399941  0.37687717  0.06634038    -0.52800
C446        C  0.63193925  0.38839927  0.07618873     0.10400
C447        C  0.63114680  0.38410731  0.09755641     0.21300
C448        C  0.66379247  0.37370111  0.09423924    -0.53500
C449        C  0.65194681  0.38519589  0.10419841     0.10500
C450        C  0.63764629  0.35170506  0.08872283    -0.53000
C451        C  0.62574815  0.36314659  0.09845227     0.11100
H452        H  0.64534800  0.37790483  0.05115406     0.15600
H453        H  0.62144160  0.39342176  0.10560957     0.01300
H454        H  0.67887326  0.37289048  0.09712269     0.15900
H455        H  0.63550279  0.33654179  0.08793503     0.15700
C456        C  0.57736735  0.66213291  0.14418836     0.87500
C457        C  0.59247695  0.67051484  0.13099543    -0.52800
C458        C  0.60245416  0.65749639  0.12075255     0.10400
C459        C  0.59564987  0.63701992  0.12422933     0.21300
C460        C  0.56460453  0.65056468  0.13082252    -0.53500
C461        C  0.57413244  0.63742081  0.12046544     0.10500
C462        C  0.58775668  0.64733880  0.15600254    -0.53000
C463        C  0.59714838  0.63413347  0.14573092     0.11100
H464        H  0.59500293  0.68557601  0.12989709     0.15600
H465        H  0.60328919  0.62601215  0.11615174     0.01300
H466        H  0.54949075  0.65247588  0.12917676     0.15900
H467        H  0.58736722  0.64709971  0.17135366     0.15700
C468        C  0.41479201  0.35094832  0.85184562     0.87500
C469        C  0.42665134  0.36063221  0.86751058    -0.52800
C470        C  0.41654126  0.37302181  0.87838190     0.10400
C471        C  0.39552428  0.37436080  0.87285816     0.21300
C472        C  0.39818448  0.34176490  0.86241414    -0.53500
C473        C  0.38809332  0.35391648  0.87345655     0.10500
C474        C  0.40612430  0.36755386  0.84100085    -0.53000
C475        C  0.39597332  0.37972332  0.85185657     0.11100
H476        H  0.44179761  0.35920474  0.86919054     0.15600
H477        H  0.38729812  0.38433486  0.88171864     0.01300
H478        H  0.39507819  0.32678069  0.86160419     0.15900
H479        H  0.40788068  0.36950614  0.82587577     0.15700
C480        C  0.34245453  0.65481747  0.91540665     0.87500
C481        C  0.33305237  0.64184287  0.90074491    -0.52800
C482        C  0.34548086  0.63158074  0.89011359     0.10400
C483        C  0.36648407  0.63497358  0.89559934     0.21300
C484        C  0.35460351  0.64115355  0.92725234    -0.53500
C485        C  0.36758571  0.63099627  0.91706397     0.10500
C486        C  0.35677049  0.66662530  0.90429772    -0.53000
C487        C  0.36941359  0.65646892  0.89399143     0.11100
H488        H  0.31781979  0.64051835  0.89921514     0.15600
H489        H  0.37667581  0.62688702  0.88688871     0.01300
H490        H  0.35261184  0.63908801  0.94226588     0.15900
H491        H  0.35740449  0.68189748  0.90538256     0.15700
C492        C  0.64430616  0.58502781  0.84324001     0.87500
C493        C  0.63044943  0.57340655  0.85528168    -0.52800
C494        C  0.61987368  0.58376235  0.86775230     0.10400
C495        C  0.62396354  0.60519242  0.86662663     0.21300
C496        C  0.63169696  0.59982938  0.83347772    -0.53500
C497        C  0.62119128  0.61047987  0.84562497     0.10500
C498        C  0.65593039  0.59647735  0.85751116    -0.53000
C499        C  0.64546402  0.60693235  0.86976269     0.11100
H500        H  0.62932635  0.55818025  0.85410245     0.15600
H501        H  0.61574688  0.61403820  0.87659398     0.01300
H502        H  0.63090505  0.60220294  0.81841490     0.15900
H503        H  0.67130321  0.59614544  0.85802811     0.15700
C504        C  0.35097799  0.42286904  0.15451826     0.87500
C505        C  0.36454959  0.40841877  0.16360490    -0.52800
C506        C  0.37552749  0.39894992  0.15083674     0.10400
C507        C  0.37192378  0.40454950  0.13018731     0.21300
C508        C  0.36389968  0.43558048  0.14249847    -0.53500
C509        C  0.37499863  0.42602336  0.12986719     0.10500
C510        C  0.33979474  0.41105555  0.14008425    -0.53000
C511        C  0.35059417  0.40170812  0.12726072     0.11100
H512        H  0.36517352  0.40493352  0.17843076     0.15600
H513        H  0.38058772  0.39664459  0.11979325     0.01300
H514        H  0.36435017  0.45080672  0.14407951     0.15900
H515        H  0.32442623  0.41058805  0.13970995     0.15700
O516        O  0.47659268  0.54520688  0.98192310    -0.77500
C517        C  0.51300673  0.54341032  0.03220748     0.83500
O518        O  0.52789547  0.50569109  0.96298903    -0.78600
O519        O  0.52541899  0.48390947  0.02765387    -0.80100
O520        O  0.45648214  0.49102213  0.01908361    -0.79900
O521        O  0.45422958  0.52311536  0.98296700    -0.78500
Zn522      Zn  0.50043604  0.53284977  0.99213933     1.55700
O523        O  0.48021474  0.49019975  0.03975774    -0.79900
Cd524      Cd  0.46892603  0.50033409  0.99422211     1.59700
Cd525      Cd  0.51237084  0.48939462  0.98195574     1.59600
O526        O  0.46624360  0.47847203  0.97527265    -0.79900
O527        O  0.49625772  0.50640134  0.99815995    -1.90400
Cd528      Cd  0.50272579  0.50192721  0.02521961     1.59900
O529        O  0.49547141  0.47028897  0.96688547    -0.79900
O530        O  0.51066520  0.52668832  0.03835256    -0.78500
C531        C  0.52975048  0.52354106  0.96151492     0.84000
C532        C  0.45962829  0.53979059  0.97883676     0.83600
O533        O  0.50958804  0.54758206  0.01501946    -0.77500
C534        C  0.46295851  0.48710164  0.03544306     0.84500
O535        O  0.52040215  0.53482630  0.97197202    -0.77600
C536        C  0.47753464  0.46808334  0.96588145     0.84600
C537        C  0.53531404  0.47426954  0.01612834     0.84900
O538        O  0.53197180  0.47450559  0.99838677    -0.80000
O539        O  0.29524024  0.48826084  0.70461214    -0.77500
C540        C  0.25728959  0.53539039  0.72455773     0.83500
O541        O  0.33582006  0.52647424  0.73352192    -0.78600
O542        O  0.28748294  0.53802038  0.78212799    -0.80100
O543        O  0.26371277  0.47389986  0.76144582    -0.79900
O544        O  0.29496890  0.46443748  0.72484468    -0.78500
Zn545      Zn  0.29222272  0.51154104  0.72037233     1.55700
O546        O  0.25527763  0.50225218  0.77225072    -0.79900
Cd547      Cd  0.29051800  0.47895732  0.75015255     1.59700
Cd548      Cd  0.32045100  0.51373642  0.75539598     1.59600
O549        O  0.31074324  0.46925170  0.76862178    -0.79900
O550        O  0.29458061  0.50645214  0.74677419    -1.90400
Cd551      Cd  0.27509752  0.52093854  0.76110867     1.59900
O552        O  0.33383946  0.49079997  0.76798005    -0.79900
O553        O  0.25944719  0.53712578  0.74237929    -0.78500
C554        C  0.32961278  0.53231050  0.71761018     0.84000
C555        C  0.29689240  0.47075134  0.70807015     0.83600
O556        O  0.26806122  0.52483969  0.71475856    -0.77500
C557        C  0.25210606  0.48461671  0.77019435     0.84500
O558        O  0.31300685  0.52824278  0.71200822    -0.77600
C559        C  0.32724294  0.47489167  0.77337798     0.84600
C560        C  0.30488909  0.54145933  0.78586875     0.84900
O561        O  0.31817609  0.53358487  0.77661480    -0.80000
C562        C  0.65721536  0.65386478  0.41697117     0.87500
C563        C  0.64543898  0.64046718  0.42947505    -0.52800
C564        C  0.63264445  0.62966874  0.41972248     0.10400
C565        C  0.63298150  0.63304594  0.39820749     0.21300
C566        C  0.66648513  0.64075443  0.40225578    -0.53500
C567        C  0.65381678  0.62990682  0.39239152     0.10500
C568        C  0.64262325  0.66502174  0.40547003    -0.53000
C569        C  0.62958398  0.65433420  0.39618259     0.11100
H570        H  0.64664251  0.64009666  0.44476775     0.15600
H571        H  0.62273015  0.62416338  0.39026920     0.01300
H572        H  0.68149714  0.64017702  0.39927638     0.15900
H573        H  0.64236754  0.68033574  0.40515541     0.15700
C574        C  0.64367140  0.42404968  0.65504718     0.87500
C575        C  0.63007916  0.43726838  0.64411931    -0.52800
C576        C  0.61885243  0.42809926  0.63124428     0.10400
C577        C  0.62199497  0.40662438  0.63059809     0.21300
C578        C  0.63047004  0.40935052  0.66393172    -0.53500
C579        C  0.61927309  0.40002524  0.65125305     0.10500
C580        C  0.65438969  0.41338142  0.63956083    -0.53000
C581        C  0.64327140  0.40465170  0.62644524     0.11100
H582        H  0.62949154  0.45243278  0.64570167     0.15600
H583        H  0.61268495  0.39930650  0.62027352     0.01300
H584        H  0.63032482  0.40623730  0.67895318     0.15900
H585        H  0.66974528  0.41303576  0.63904068     0.15700
C586        C  0.41796611  0.66031991  0.64609613     0.87500
C587        C  0.43029139  0.64937372  0.63169384    -0.52800
C588        C  0.42013435  0.63753595  0.62011474     0.10400
C589        C  0.39864829  0.63796593  0.62383817     0.21300
C590        C  0.40336906  0.67051420  0.63371314    -0.53500
C591        C  0.39312324  0.65892505  0.62210481     0.10500
C592        C  0.40683787  0.64488283  0.65641311    -0.53000
C593        C  0.39680626  0.63327098  0.64489962     0.11100
H594        H  0.44554322  0.65034947  0.63071634     0.15600
H595        H  0.39042516  0.62848450  0.61444299     0.01300
H596        H  0.40119964  0.68565504  0.63432278     0.15900
H597        H  0.40725514  0.64297254  0.67164524     0.15700
C598        C  0.35278932  0.59020403  0.34123785     0.87500
C599        C  0.36573619  0.60488055  0.33150769    -0.52800
C600        C  0.37652151  0.61528273  0.34382208     0.10400
C601        C  0.37352941  0.60992277  0.36475534     0.21300
C602        C  0.36653298  0.57835066  0.35316161    -0.53500
C603        C  0.37755607  0.58850489  0.36547628     0.10500
C604        C  0.34142621  0.60171413  0.35559467    -0.53000
C605        C  0.35204804  0.61189512  0.36796050     0.11100
H606        H  0.36656805  0.60713958  0.31641554     0.15600
H607        H  0.38224091  0.61841810  0.37466238     0.01300
H608        H  0.36696531  0.56309325  0.35220172     0.15900
H609        H  0.32605347  0.60145098  0.35621174     0.15700
C610        C  0.58222465  0.35373772  0.35032606     0.87500
C611        C  0.59407942  0.34225059  0.36442067    -0.52800
C612        C  0.60455881  0.35294960  0.37669870     0.10400
C613        C  0.60189612  0.37439813  0.37391475     0.21300
C614        C  0.57010727  0.36663205  0.36303116    -0.53500
C615        C  0.58038556  0.37754112  0.37524119     0.10500
C616        C  0.59636352  0.36712357  0.34084001    -0.53000
C617        C  0.60665737  0.37792990  0.35302264     0.11100
H618        H  0.59472511  0.32696612  0.36409007     0.15600
H619        H  0.61022915  0.38331408  0.38380555     0.01300
H620        H  0.55480493  0.36699410  0.36309352     0.15900
H621        H  0.59768454  0.36834147  0.32559177     0.15700
C622        C  0.34448398  0.35952152  0.58219431     0.87500
C623        C  0.33487304  0.37373370  0.59540108    -0.52800
C624        C  0.34713844  0.38476783  0.60554423     0.10400
C625        C  0.36819154  0.38074130  0.60115324     0.21300
C626        C  0.35747774  0.37182229  0.56962951    -0.53500
C627        C  0.37004542  0.38281718  0.57951793     0.10500
C628        C  0.35822116  0.34859209  0.59480266    -0.53000
C629        C  0.37049654  0.35953447  0.60473504     0.11100
H630        H  0.31961298  0.37445015  0.59709148     0.15600
H631        H  0.37837111  0.38951462  0.60927492     0.01300
H632        H  0.35682634  0.37232356  0.55438535     0.15900
H633        H  0.35840131  0.33328578  0.59560952     0.15700
O634        O  0.48008553  0.46734908  0.51347911    -0.77500
C635        C  0.51825413  0.47047348  0.46395835     0.83500
O636        O  0.53140393  0.50805569  0.53284486    -0.78600
O637        O  0.52625181  0.53168597  0.46768360    -0.80100
O638        O  0.45866425  0.52083605  0.47602093    -0.79900
O639        O  0.45759352  0.48916939  0.51234470    -0.78500
Zn640      Zn  0.50394381  0.48037830  0.50364856     1.55700
O641        O  0.48207363  0.52094312  0.45504058    -0.79900
Cd642      Cd  0.47171672  0.51235150  0.50102769     1.59700
Cd643      Cd  0.51528394  0.52407796  0.51372368     1.59600
O644        O  0.46868927  0.53459733  0.51957831    -0.79900
O645        O  0.49925072  0.50680624  0.49740165    -1.90400
Cd646      Cd  0.50535832  0.51143140  0.47022887     1.59900
O647        O  0.49779773  0.54281029  0.52861712    -0.79900
O648        O  0.51555523  0.48713931  0.45780135    -0.78500
C649        C  0.53309696  0.49019455  0.53466832     0.84000
C650        C  0.46303410  0.47251626  0.51642852     0.83600
O651        O  0.51415177  0.46598950  0.48093265    -0.77500
C652        C  0.46482304  0.52397602  0.45935984     0.84500
O653        O  0.52364349  0.47883183  0.52430542    -0.77600
C654        C  0.47984088  0.54510267  0.52909826     0.84600
C655        C  0.53609917  0.54156532  0.47910749     0.84900
O656        O  0.53389249  0.54019623  0.49699583    -0.80000
O657        O  0.48446976  0.72161827  0.76861148    -0.77500
C658        C  0.53827331  0.71595321  0.79770184     0.83500
O659        O  0.48261005  0.74278067  0.83658416    -0.78600
O660        O  0.53994819  0.77712737  0.80873687    -0.80100
O661        O  0.50606922  0.78171088  0.75733842    -0.79900
O662        O  0.47335619  0.74907965  0.75829630    -0.78500
Zn663      Zn  0.49697409  0.72770310  0.79346155     1.55700
O664        O  0.53390783  0.76810824  0.76320247    -0.79900
Cd665      Cd  0.48762249  0.76812649  0.77555463     1.59700
Cd666      Cd  0.49633797  0.76372142  0.82077537     1.59600
O667        O  0.46937345  0.78784651  0.78780116    -0.79900
O668        O  0.50236027  0.75411546  0.79503816    -1.90400
Cd669      Cd  0.52967666  0.75747896  0.79012364     1.59900
O670        O  0.47670614  0.78493968  0.81824290    -0.79900
O671        O  0.54448236  0.73265699  0.79509621    -0.78500
C672        C  0.47578799  0.72703115  0.83089479     0.84000
C673        C  0.47511956  0.73123704  0.75661027     0.83600
O674        O  0.52063757  0.71224256  0.79686524    -0.77500
C675        C  0.52336963  0.77871116  0.75314019     0.84500
O676        O  0.47960427  0.72048500  0.81456235    -0.77600
C677        C  0.46733107  0.79278455  0.80505472     0.84600
C678        C  0.53527980  0.78249643  0.82526005     0.84900
O679        O  0.52002949  0.77673426  0.83316365    -0.80000
O680        O  0.26558101  0.99561801  0.21592142    -0.77500
C681        C  0.29720006  0.04727374  0.20990321     0.83500
O682        O  0.33444972  0.99037397  0.23357397    -0.78600
O683        O  0.30991161  0.04753698  0.27050580    -0.80100
O684        O  0.25782661  0.01516501  0.27682093    -0.79900
O685        O  0.25628092  0.98354734  0.24344736    -0.78500
Zn686      Zn  0.29146479  0.00615787  0.22112845     1.55700
O687        O  0.26374181  0.04269340  0.26268894    -0.79900
Cd688      Cd  0.27502257  0.99638710  0.26229877     1.59700
Cd689      Cd  0.32032104  0.00401707  0.25580964     1.59600
O690        O  0.28780016  0.97752994  0.28145163    -0.79900
O691        O  0.29434170  0.01078851  0.24759369    -1.90400
Cd692      Cd  0.29031048  0.03804604  0.25142856     1.59900
O693        O  0.31829340  0.98429558  0.27713458    -0.79900
O694        O  0.29492266  0.05323305  0.22674404    -0.78500
C695        C  0.32781173  0.98386380  0.21802455     0.84000
C696        C  0.25365333  0.98639266  0.22579775     0.83600
O697        O  0.29578767  0.02979038  0.20600851    -0.77500
C698        C  0.25381991  0.03243489  0.27372465     0.84500
O699        O  0.31117220  0.98793134  0.21242468    -0.77600
C700        C  0.30527660  0.97517108  0.28564253     0.84600
C701        C  0.32673461  0.04263324  0.27469257     0.84900
O702        O  0.33397866  0.02737049  0.26827940    -0.80000
O703        O  0.20731683  0.80590814  0.98089663    -0.77500
C704        C  0.22751519  0.76407720  0.02518407     0.83500
O705        O  0.23483692  0.84481039  0.01986639    -0.78600
O706        O  0.28349837  0.79772612  0.03181059    -0.80100
O707        O  0.26521736  0.77551618  0.96626017    -0.79900
O708        O  0.22783619  0.80619709  0.95718028    -0.78500
Zn709      Zn  0.22257588  0.80135102  0.00448761     1.55700
O710        O  0.27665771  0.76723381  0.99451123    -0.79900
Cd711      Cd  0.25290415  0.80146362  0.97195222     1.59700
Cd712      Cd  0.25725026  0.83055533  0.00690961     1.59600
O713        O  0.27126781  0.82182397  0.96284901    -0.79900
O714        O  0.24903198  0.80464739  0.99948413    -1.90400
Cd715      Cd  0.26361682  0.78517796  0.01359619     1.59900
O716        O  0.27015873  0.84479949  0.98430479    -0.79900
O717        O  0.24516788  0.76711287  0.02769079    -0.78500
C718        C  0.21925669  0.83813386  0.02623713     0.84000
C719        C  0.21100975  0.80812465  0.96342479     0.83600
O720        O  0.21733616  0.77546985  0.01561506    -0.77500
C721        C  0.27473576  0.76440548  0.97679429     0.84500
O722        O  0.21394506  0.82136039  0.02243252    -0.77600
C723        C  0.27582848  0.83828980  0.96842706     0.84600
C724        C  0.28716201  0.81508697  0.03523233     0.84900
O725        O  0.27818919  0.82831792  0.02702935    -0.80000
C726        C  0.35478787  0.92163563  0.84330384     0.87500
C727        C  0.36965483  0.93408478  0.85353041    -0.52800
C728        C  0.38100731  0.92436354  0.86584699     0.10400
C729        C  0.37670432  0.90305636  0.86652838     0.21300
C730        C  0.36653320  0.90621618  0.83373710    -0.53500
C731        C  0.37800248  0.89645689  0.84574674     0.10500
C732        C  0.34431061  0.91175441  0.85947632    -0.53000
C733        C  0.35561505  0.90228398  0.87176809     0.11100
H734        H  0.37074903  0.94923574  0.85221004     0.15600
H735        H  0.38600726  0.89504540  0.87626674     0.01300
H736        H  0.36570812  0.90318349  0.81871241     0.15900
H737        H  0.32908654  0.91277576  0.86142035     0.15700
C738        C  0.65628372  0.86124334  0.91778336     0.87500
C739        C  0.66672392  0.87450997  0.90402602    -0.52800
C740        C  0.65501159  0.88589575  0.89367484     0.10400
C741        C  0.63376174  0.88276565  0.89804165     0.21300
C742        C  0.64410068  0.87460263  0.92978801    -0.53500
C743        C  0.63199299  0.88573216  0.91962206     0.10500
C744        C  0.64228504  0.85048306  0.90529163    -0.53000
C745        C  0.63049689  0.86155374  0.89503285     0.11100
H746        H  0.68189124  0.87479663  0.90212669     0.15600
H747        H  0.62400209  0.89140161  0.88942564     0.01300
H748        H  0.64499129  0.87502082  0.94509113     0.15900
H749        H  0.64157335  0.83517383  0.90482205     0.15700
C750        C  0.41633998  0.85440886  0.14820747     0.87500
C751        C  0.40129553  0.84462836  0.13574519    -0.52800
C752        C  0.39146125  0.85650979  0.12422266     0.10400
C753        C  0.39791121  0.87721713  0.12582545     0.21300
C754        C  0.42904890  0.86472798  0.13382950    -0.53500
C755        C  0.41945027  0.87681608  0.12214003     0.10500
C756        C  0.40566111  0.87022296  0.15845611    -0.53000
C757        C  0.39618927  0.88218298  0.14683455     0.11100
H758        H  0.39914829  0.82957003  0.13492889     0.15600
H759        H  0.38991224  0.88697109  0.11655906     0.01300
H760        H  0.44432299  0.86318204  0.13356385     0.15900
H761        H  0.40597108  0.87210704  0.17369423     0.15700
C762        C  0.34514670  0.15575643  0.08051492     0.87500
C763        C  0.35650265  0.14132092  0.06857070    -0.52800
C764        C  0.36765381  0.12942675  0.07909327     0.10400
C765        C  0.36622269  0.13296789  0.10051229     0.21300
C766        C  0.33401636  0.14358461  0.09464981    -0.53500
C767        C  0.34495283  0.13165994  0.10515424     0.10500
C768        C  0.36040164  0.16566805  0.09237269    -0.53000
C769        C  0.37120537  0.15384675  0.10285676     0.11100
H770        H  0.35678926  0.14107409  0.05329694     0.15600
H771        H  0.37521677  0.12364144  0.10930291     0.01300
H772        H  0.31875699  0.14447310  0.09626280     0.15900
H773        H  0.36265486  0.18083462  0.09232196     0.15700
C774        C  0.58292387  0.16310478  0.85405072     0.87500
C775        C  0.57100766  0.15256156  0.86899036    -0.52800
C776        C  0.58082911  0.13911974  0.87887208     0.10400
C777        C  0.60193733  0.13807542  0.87330619     0.21300
C778        C  0.59946803  0.17139498  0.86559831    -0.53500
C779        C  0.60955069  0.15833195  0.87553671     0.10500
C780        C  0.59180262  0.14754664  0.84197540    -0.53000
C781        C  0.60162761  0.13440837  0.85191492     0.11100
H782        H  0.55602381  0.15508213  0.87113104     0.15600
H783        H  0.61026772  0.12757508  0.88136457     0.01300
H784        H  0.60245634  0.18634254  0.86678766     0.15900
H785        H  0.59047550  0.14707485  0.82668390     0.15700
C786        C  0.64357737  0.08677603  0.15519561     0.87500
C787        C  0.63094114  0.10248596  0.16326456    -0.52800
C788        C  0.62149612  0.11277147  0.14990817     0.10400
C789        C  0.62512556  0.10582362  0.12944348     0.21300
C790        C  0.62979546  0.07476317  0.14340678    -0.53500
C791        C  0.62037964  0.08441995  0.12952520     0.10500
C792        C  0.65621339  0.09652895  0.14068302    -0.53000
C793        C  0.64680660  0.10661087  0.12733701     0.11100
H794        H  0.62957611  0.10535608  0.17826544     0.15600
H795        H  0.61781779  0.11426688  0.11850450     0.01300
H796        H  0.62740201  0.05989275  0.14596825     0.15900
H797        H  0.67155282  0.09540481  0.14094027     0.15700
O798        O  0.48353410  0.99395189  0.95634176    -0.77500
C799        C  0.51800165  0.04489251  0.96693793     0.83500
O800        O  0.53073231  0.97100120  0.99699595    -0.78600
O801        O  0.52362487  0.03299855  0.02770485    -0.80100
O802        O  0.45716573  0.02415767  0.01354689    -0.79900
O803        O  0.45909253  0.99347248  0.97616641    -0.78500
Zn804      Zn  0.50599790  0.00342793  0.97157494     1.55700
O805        O  0.47982334  0.04568927  0.01711952    -0.79900
Cd806      Cd  0.47127785  0.00117063  0.00168737     1.59700
Cd807      Cd  0.51406061  0.98825621  0.01385278     1.59600
O808        O  0.46739772  0.97879335  0.02007765    -0.79900
O809        O  0.49891471  0.00633377  0.99803612    -1.90400
Cd810      Cd  0.50387834  0.03286338  0.00628442     1.59900
O811        O  0.49635220  0.97085323  0.02955178    -0.79900
O812        O  0.51430716  0.04901355  0.98409151    -0.78500
C813        C  0.53479531  0.97207951  0.97949336     0.84000
C814        C  0.46609263  0.99070360  0.95977406     0.83600
O815        O  0.51526031  0.02825368  0.96056705    -0.77500
C816        C  0.46266963  0.04041881  0.01909877     0.84500
O817        O  0.52707539  0.98419684  0.96867038    -0.77600
C818        C  0.47842144  0.96865098  0.03004909     0.84600
C819        C  0.53338017  0.02045740  0.03608893     0.84900
O820        O  0.53189988  0.00293230  0.03223169    -0.80000
O821        O  0.98208953  0.79063273  0.23035892    -0.77500
C822        C  0.03632147  0.79792528  0.20080269     0.83500
O823        O  0.98131321  0.77357885  0.16120522    -0.78600
O824        O  0.03790384  0.73699913  0.18852623    -0.80100
O825        O  0.00477729  0.73131182  0.24007751    -0.79900
O826        O  0.97080997  0.76255459  0.23894282    -0.78500
Zn827      Zn  0.99501608  0.78586179  0.20540145     1.55700
O828        O  0.03211228  0.74600056  0.23431336    -0.79900
Cd829      Cd  0.98610861  0.74447234  0.22143557     1.59700
Cd830      Cd  0.99458326  0.75142502  0.17603880     1.59600
O831        O  0.96877293  0.72473356  0.20764648    -0.79900
O832        O  0.00040473  0.75961582  0.20246316    -1.90400
Cd833      Cd  0.02766572  0.75633818  0.20738980     1.59900
O834        O  0.97446271  0.73027240  0.17712661    -0.79900
O835        O  0.04244670  0.78117001  0.20285569    -0.78500
C836        C  0.97426623  0.78881470  0.16793114     0.84000
C837        C  0.97237685  0.78032702  0.24154379     0.83600
O838        O  0.01872166  0.80158150  0.20222085    -0.77500
C839        C  0.02192958  0.73511400  0.24445394     0.84500
O840        O  0.97768510  0.79406425  0.18479605    -0.77600
C841        C  0.96592642  0.72118082  0.19013090     0.84600
C842        C  0.03353513  0.73222804  0.17171041     0.84900
O843        O  0.01849300  0.73841292  0.16370393    -0.80000
O844        O  0.78322214  0.23902071  0.98282228    -0.77500
C845        C  0.79009047  0.20952734  0.03717722     0.83500
O846        O  0.76597218  0.17061097  0.98048091    -0.78600
O847        O  0.72987445  0.19500932  0.03751136    -0.80100
O848        O  0.72212468  0.24720503  0.00511693    -0.79900
O849        O  0.75485062  0.24802220  0.97233595    -0.78500
Zn850      Zn  0.77856895  0.21409264  0.99573528     1.55700
O851        O  0.73598987  0.24152069  0.03285748    -0.79900
Cd852      Cd  0.73657672  0.22986580  0.98641601     1.59700
Cd853      Cd  0.74379517  0.18498849  0.99365027     1.59600
O854        O  0.71730263  0.21681087  0.96798607    -0.79900
O855        O  0.75196251  0.21102703  0.00057310    -1.90400
Cd856      Cd  0.74812725  0.21530628  0.02789178     1.59900
O857        O  0.72252203  0.18640109  0.97372804    -0.79900
O858        O  0.77309450  0.21145859  0.04288863    -0.78500
C859        C  0.78174356  0.17705554  0.97437280     0.84000
C860        C  0.77273854  0.25039830  0.97357933     0.83600
O861        O  0.79417251  0.21097671  0.01967796    -0.77500
C862        C  0.72491268  0.25124925  0.02247602     0.84500
O863        O  0.78736794  0.19363351  0.97848172    -0.77600
C864        C  0.71362520  0.19938661  0.96504694     0.84600
C865        C  0.72567758  0.17825873  0.03243084     0.84900
O866        O  0.73161154  0.17132198  0.01684179    -0.80000
O867        O  0.23051659  0.02312238  0.71936601    -0.77500
C868        C  0.19977502  0.96953064  0.71197097     0.83500
O869        O  0.16150861  0.02391741  0.73692362    -0.78600
O870        O  0.18792251  0.96741918  0.77289044    -0.80100
O871        O  0.24018699  0.99907151  0.77907905    -0.79900
O872        O  0.24058221  0.03321677  0.74745473    -0.78500
Zn873      Zn  0.20545879  0.01039397  0.72418467     1.55700
O874        O  0.23373903  0.97196770  0.76436720    -0.79900
Cd875      Cd  0.22254316  0.01848482  0.76571493     1.59700
Cd876      Cd  0.17680939  0.01106658  0.75897348     1.59600
O877        O  0.20956421  0.03598888  0.78586280    -0.79900
O878        O  0.20295538  0.00481667  0.75053947    -1.90400
Cd879      Cd  0.20706425  0.97746181  0.75369843     1.59900
O880        O  0.17891600  0.03052426  0.78053345    -0.79900
O881        O  0.20168165  0.96323635  0.72872238    -0.78500
C882        C  0.16756224  0.03029927  0.72111294     0.84000
C883        C  0.24247104  0.03210145  0.72951087     0.83600
O884        O  0.20197560  0.98698611  0.70836204    -0.77500
C885        C  0.24392381  0.98179456  0.77558079     0.84500
O886        O  0.18441513  0.02716925  0.71555855    -0.77600
C887        C  0.19208383  0.03873729  0.78975331     0.84600
C888        C  0.17118219  0.97219675  0.77748061     0.84900
O889        O  0.16377035  0.98752241  0.77150048    -0.80000
C890        C  0.15092990  0.15390838  0.91538416     0.87500
C891        C  0.13936670  0.14046433  0.92803944    -0.52800
C892        C  0.12710039  0.12880836  0.91844931     0.10400
C893        C  0.12750936  0.13199684  0.89681914     0.21300
C894        C  0.16064240  0.14076919  0.90099475    -0.53500
C895        C  0.14846795  0.12931968  0.89131396     0.10500
C896        C  0.13613141  0.16445751  0.90369311    -0.53000
C897        C  0.12378213  0.15327662  0.89404995     0.11100
H898        H  0.14051259  0.14069127  0.94331920     0.15600
H899        H  0.11777190  0.12285046  0.88858566     0.01300
H900        H  0.17571535  0.13999180  0.89851397     0.15900
H901        H  0.13519836  0.17974783  0.90351822     0.15700
C902        C  0.14501879  0.92719828  0.15436926     0.87500
C903        C  0.13030133  0.93867418  0.14317765    -0.52800
C904        C  0.11936351  0.92797857  0.13139821     0.10400
C905        C  0.12381265  0.90668540  0.13199354     0.21300
C906        C  0.13327329  0.91219793  0.16464676    -0.53500
C907        C  0.12220696  0.90138224  0.15310257     0.10500
C908        C  0.15595684  0.91641249  0.13912057    -0.53000
C909        C  0.14514052  0.90542999  0.12741970     0.11100
H910        H  0.12864403  0.95382354  0.14378855     0.15600
H911        H  0.11450120  0.89804429  0.12280731     0.01300
H912        H  0.13402852  0.91005930  0.17982015     0.15900
H913        H  0.17118728  0.91783168  0.13761067     0.15700
C914        C  0.91892526  0.16297920  0.14741354     0.87500
C915        C  0.93049840  0.15117601  0.13321404    -0.52800
C916        C  0.91968889  0.13941783  0.12231292     0.10400
C917        C  0.89833974  0.14026682  0.12659543     0.21300
C918        C  0.90385116  0.17297971  0.13540020    -0.53500
C919        C  0.89297847  0.16124765  0.12443337     0.10500
C920        C  0.90799778  0.14795127  0.15857500    -0.53000
C921        C  0.89688004  0.13639548  0.14792063     0.11100
H922        H  0.94576900  0.15089434  0.13230809     0.15600
H923        H  0.88966148  0.13036116  0.11809152     0.01300
H924        H  0.90208771  0.18818003  0.13560546     0.15900
H925        H  0.90909741  0.14652555  0.17381570     0.15700
C926        C  0.84050055  0.85972382  0.08427044     0.87500
C927        C  0.83149981  0.87261321  0.09929216    -0.52800
C928        C  0.84413708  0.88378401  0.10875617     0.10400
C929        C  0.86483863  0.88089867  0.10239739     0.21300
C930        C  0.85146128  0.87362070  0.07147299    -0.53500
C931        C  0.86456273  0.88440717  0.08088659     0.10500
C932        C  0.85585734  0.84872994  0.09481349    -0.53000
C933        C  0.86858747  0.85966502  0.10419796     0.11100
H934        H  0.81646499  0.87323730  0.10213045     0.15600
H935        H  0.87518850  0.88982954  0.11013083     0.01300
H936        H  0.84954398  0.87439327  0.05628022     0.15900
H937        H  0.85696785  0.83345289  0.09433855     0.15700
C938        C  0.07850995  0.84932876  0.85589705     0.87500
C939        C  0.09422956  0.84035203  0.86806561    -0.52800
C940        C  0.10441089  0.85298992  0.87868011     0.10400
C941        C  0.09768959  0.87355795  0.87629440     0.21300
C942        C  0.06639783  0.86015099  0.87036776    -0.53500
C943        C  0.07629985  0.87299502  0.88097235     0.10500
C944        C  0.08872751  0.86455603  0.84444048    -0.53000
C945        C  0.09879318  0.87713446  0.85490407     0.11100
H946        H  0.09723375  0.82541482  0.86850997     0.15600
H947        H  0.10579385  0.88390003  0.88486959     0.01300
H948        H  0.05119952  0.85826580  0.87161014     0.15900
H949        H  0.08832131  0.86512090  0.82909614     0.15700
C950        C  0.85313439  0.09009651  0.84482571     0.87500
C951        C  0.86677743  0.10410171  0.83524336    -0.52800
C952        C  0.87809522  0.11384131  0.84749246     0.10400
C953        C  0.87502806  0.10850457  0.86837255     0.21300
C954        C  0.86633702  0.07735704  0.85648040    -0.53500
C955        C  0.87757137  0.08692056  0.86905668     0.10500
C956        C  0.84248123  0.10184023  0.85951360    -0.53000
C957        C  0.85377688  0.11145567  0.87183087     0.11100
H958        H  0.86770491  0.10634989  0.82014764     0.15600
H959        H  0.88421126  0.11639724  0.87839152     0.01300
H960        H  0.86665862  0.06212146  0.85504485     0.15900
H961        H  0.82712994  0.10197187  0.86045051     0.15700
O962        O  0.98268534  0.04809884  0.01726738    -0.77500
C963        C  0.03385838  0.04030268  0.98220276     0.83500
O964        O  0.96413484  0.00619280  0.96637106    -0.78600
O965        O  0.02648291  0.97890911  0.97798789    -0.80100
O966        O  0.01310870  0.99284224  0.04303594    -0.79900
O967        O  0.97963117  0.02693111  0.04021895    -0.78500
Zn968      Zn  0.99287345  0.03330352  0.99488069     1.55700
O969        O  0.03657504  0.99217229  0.02199788    -0.79900
Cd970      Cd  0.99002278  0.00256868  0.02798589     1.59700
Cd971      Cd  0.98037371  0.98961648  0.98469212     1.59600
O972        O  0.96914178  0.98247342  0.03074573    -0.79900
O973        O  0.99660826  0.00677283  0.00090430    -1.90400
Cd974      Cd  0.02391763  0.00074041  0.99702906     1.59900
O975        O  0.96202943  0.97331410  0.00151212    -0.79900
O976        O  0.03884145  0.02348583  0.98610129    -0.78500
C977        C  0.96320927  0.02409967  0.96449949     0.84000
C978        C  0.97769434  0.04367688  0.03400278     0.83600
O979        O  0.01693901  0.04583425  0.98512354    -0.77500
C980        C  0.03025294  0.98940349  0.03864448     0.84500
O981        O  0.97338211  0.03514313  0.97447376    -0.77600
C982        C  0.95954655  0.97230331  0.01938204     0.84600
C983        C  0.01526980  0.96881842  0.96810720     0.84900
O984        O  0.99733100  0.97113480  0.96882685    -0.80000
O985        O  0.21227367  0.27720771  0.97906732    -0.77500
C986        C  0.20587224  0.30682633  0.03313722     0.83500
O987        O  0.23257688  0.34555158  0.97848484    -0.78600
O988        O  0.26765933  0.31839523  0.03475563    -0.80100
O989        O  0.27405818  0.26717489  0.00250940    -0.79900
O990        O  0.24050252  0.26586820  0.97064841    -0.78500
Zn991      Zn  0.21816398  0.30198872  0.99194844     1.55700
O992        O  0.25959730  0.27249970  0.02999600    -0.79900
Cd993      Cd  0.25936768  0.28418354  0.98369581     1.59700
Cd994      Cd  0.25399786  0.32945527  0.99095894     1.59600
O995        O  0.27831014  0.29644817  0.96447891    -0.79900
O996        O  0.24469341  0.30370478  0.99765846    -1.90400
Cd997      Cd  0.24802238  0.29916264  0.02506492     1.59900
O998        O  0.27450482  0.32703584  0.97046216    -0.79900
O999        O  0.22261045  0.30407880  0.03940477    -0.78500
C1000       C  0.21690893  0.33966905  0.97156911     0.84000
C1001       C  0.22247404  0.26466383  0.97112856     0.83600
O1002       O  0.20230052  0.30575014  0.01549962    -0.77500
C1003       C  0.27109615  0.26299740  0.01979941     0.84500
O1004       O  0.21091073  0.32303089  0.97475542    -0.77600
C1005       C  0.28258955  0.31371917  0.96148488     0.84600
C1006       C  0.27346002  0.33456054  0.02934170     0.84900
O1007       O  0.26788898  0.34193267  0.01384072    -0.80000
O1008       O  0.76851004  0.48726847  0.71505508    -0.77500
C1009       C  0.79643759  0.54240728  0.71043233     0.83500
O1010       O  0.83713924  0.48826398  0.73473361    -0.78600
O1011       O  0.80841767  0.54286342  0.77159637    -0.80100
O1012       O  0.75679158  0.50685414  0.77493979    -0.79900
O1013       O  0.75966018  0.47451925  0.74240603    -0.78500
Zn1014     Zn  0.79300719  0.50082064  0.72103319     1.55700
O1015       O  0.76270281  0.53543858  0.76316999    -0.79900
Cd1016     Cd  0.77623185  0.48952518  0.76156628     1.59700
Cd1017     Cd  0.82112734  0.49997264  0.75659168     1.59600
O1018       O  0.78954381  0.47223162  0.78159582    -0.79900
O1019       O  0.79500793  0.50539301  0.74766497    -1.90400
Cd1020     Cd  0.78960363  0.53242295  0.75199494     1.59900
O1021       O  0.81983449  0.48010689  0.77771793    -0.79900
O1022       O  0.79394183  0.54802767  0.72738786    -0.78500
C1023       C  0.83168636  0.48241808  0.71851587     0.84000
C1024       C  0.75729356  0.47689971  0.72466725     0.83600
O1025       O  0.79550654  0.52496012  0.70625091    -0.77500
C1026       C  0.75245712  0.52419297  0.77290494     0.84500
O1027       O  0.81497071  0.48535187  0.71246461    -0.77600
C1028       C  0.80699474  0.47074797  0.78620487     0.84600
C1029       C  0.82531192  0.53851206  0.77609260     0.84900
O1030       O  0.83315813  0.52356796  0.76972091    -0.80000
O1031       O  0.97833734  0.21462895  0.79380420    -0.77500
C1032       C  0.02414199  0.23447521  0.75381956     0.83500
O1033       O  0.01561782  0.24252387  0.83451632    -0.78600
O1034       O  0.02949051  0.29014447  0.78677198    -0.80100
O1035       O  0.96378749  0.27136377  0.76224842    -0.79900
O1036       O  0.95444153  0.23490560  0.79378112    -0.78500
Zn1037     Zn  0.00200345  0.22998544  0.79045077     1.55700
O1038       O  0.99148929  0.28521772  0.75585195    -0.79900
Cd1039     Cd  0.96898794  0.26005329  0.78894575     1.59700
Cd1040     Cd  0.00315511  0.26454400  0.81917452     1.59600
O1041       O  0.95937022  0.27912662  0.80878034    -0.79900
O1042       O  0.99654289  0.25636359  0.79292683    -1.90400
Cd1043     Cd  0.01070494  0.27113129  0.77341565     1.59900
O1044       O  0.98016687  0.27776726  0.83245268    -0.79900
O1045       O  0.02486607  0.25244813  0.75529157    -0.78500
C1046       C  0.02201937  0.22685557  0.82828693     0.84000
C1047       C  0.96077988  0.21818918  0.79575251     0.83600
O1048       O  0.01516759  0.22443459  0.76580480    -0.77500
C1049       C  0.97400387  0.28227074  0.75208775     0.84500
O1050       O  0.01875309  0.22141562  0.81145882    -0.77600
C1051       C  0.96467367  0.28383918  0.82537382     0.84600
C1052       C  0.03259937  0.29368922  0.80426848     0.84900
O1053       O  0.02373116  0.28501937  0.81733001    -0.80000
C1054       C  0.84299235  0.36201263  0.91871773     0.87500
C1055       C  0.85423131  0.37551150  0.93167871    -0.52800
C1056       C  0.86706956  0.38653413  0.92229826     0.10400
C1057       C  0.86742353  0.38322401  0.90079339     0.21300
C1058       C  0.83400139  0.37529121  0.90398738    -0.53500
C1059       C  0.84675338  0.38635468  0.89452641     0.10500
C1060       C  0.85800993  0.35104767  0.90776680    -0.53000
C1061       C  0.87078031  0.36193425  0.89839927     0.11100
H1062       H  0.85199334  0.37666299  0.94680369     0.15600
H1063       H  0.87792523  0.39209334  0.89320529     0.01300
H1064       H  0.81894998  0.37595920  0.90114841     0.15900
H1065       H  0.85843071  0.33572932  0.90737701     0.15700
C1066       C  0.14231227  0.42528433  0.84070734     0.87500
C1067       C  0.12847121  0.41064252  0.83236918    -0.52800
C1068       C  0.11863971  0.40059471  0.84559286     0.10400
C1069       C  0.12296728  0.40658260  0.86608615     0.21300
C1070       C  0.12950041  0.43777214  0.85317585    -0.53500
C1071       C  0.11939466  0.42800536  0.86648139     0.10500
C1072       C  0.15448634  0.41433780  0.85482179    -0.53000
C1073       C  0.14459078  0.40476829  0.86830922     0.11100
H1074       H  0.12629411  0.40836285  0.81739587     0.15600
H1075       H  0.11471861  0.39853025  0.87671320     0.01300
H1076       H  0.12839011  0.45295388  0.85162701     0.15900
H1077       H  0.16984793  0.41508596  0.85470091     0.15700
C1078       C  0.91502675  0.66494187  0.85284069     0.87500
C1079       C  0.90005810  0.67416004  0.86560402    -0.52800
C1080       C  0.89023803  0.66171868  0.87659657     0.10400
C1081       C  0.89635939  0.64093404  0.87391989     0.21300
C1082       C  0.92755266  0.65372894  0.86657041    -0.53500
C1083       C  0.91792040  0.64106185  0.87753876     0.10500
C1084       C  0.90388751  0.64996222  0.84175684    -0.53000
C1085       C  0.89454827  0.63689842  0.85250620     0.11100
H1086       H  0.89711458  0.68910531  0.86623694     0.15600
H1087       H  0.88868134  0.63102655  0.88326838     0.01300
H1088       H  0.94284289  0.65528505  0.86709076     0.15900
H1089       H  0.90384056  0.64966611  0.82642313     0.15700
C1090       C  0.07655356  0.35142151  0.14332255     0.87500
C1091       C  0.06398213  0.36222730  0.12917695    -0.52800
C1092       C  0.07367289  0.37498602  0.11839051     0.10400
C1093       C  0.09510530  0.37567050  0.12243984     0.21300
C1094       C  0.09181257  0.34251542  0.13074377    -0.53500
C1095       C  0.10193507  0.35500455  0.11994291     0.10500
C1096       C  0.08695632  0.36670827  0.15450553    -0.53000
C1097       C  0.09624067  0.37979169  0.14386791     0.11100
H1098       H  0.04894744  0.35995468  0.12723927     0.15600
H1099       H  0.10271312  0.38625651  0.11379132     0.01300
H1100       H  0.09407442  0.32739957  0.13021367     0.15900
H1101       H  0.08686974  0.36697835  0.16984031     0.15700
C1102       C  0.85362738  0.59031158  0.15515570     0.87500
C1103       C  0.86762070  0.57841607  0.14350852    -0.52800
C1104       C  0.87775347  0.58857609  0.13062048     0.10400
C1105       C  0.87331400  0.60977318  0.13066789     0.21300
C1106       C  0.86626147  0.60575023  0.16410637    -0.53500
C1107       C  0.87642611  0.61615878  0.15128643     0.10500
C1108       C  0.84166360  0.60075548  0.14049741    -0.53000
C1109       C  0.85178311  0.61086302  0.12763490     0.11100
H1110       H  0.86931189  0.56329460  0.14514163     0.15600
H1111       H  0.88151479  0.61797177  0.12012593     0.01300
H1112       H  0.86782308  0.60779160  0.17918305     0.15900
H1113       H  0.82631103  0.59980160  0.14010595     0.15700
C1114       C  0.15726197  0.65302038  0.08129227     0.87500
C1115       C  0.16665312  0.63955501  0.09545264    -0.52800
C1116       C  0.15421515  0.62886928  0.10572364     0.10400
C1117       C  0.13328167  0.63245336  0.10060110     0.21300
C1118       C  0.14473403  0.64005692  0.06897876    -0.53500
C1119       C  0.13215931  0.62932148  0.07905427     0.10500
C1120       C  0.14297333  0.66436957  0.09294182    -0.53000
C1121       C  0.13056439  0.65381457  0.10321077     0.11100
H1122       H  0.18187364  0.63895277  0.09752116     0.15600
H1123       H  0.12302670  0.62384734  0.10877763     0.01300
H1124       H  0.14538445  0.63917966  0.05373821     0.15900
H1125       H  0.14256510  0.67968093  0.09276350     0.15700
O1126       O  0.01953023  0.54922323  0.01347481    -0.77500
C1127       C  0.98205402  0.54756049  0.96419635     0.83500
O1128       O  0.96716431  0.51139810  0.03377810    -0.78600
O1129       O  0.97105106  0.48684227  0.96877531    -0.80100
O1130       O  0.03898534  0.49467093  0.97810648    -0.79900
O1131       O  0.04097596  0.52637948  0.01341803    -0.78500
Zn1132     Zn  0.99521522  0.53724262  0.00416618     1.55700
O1133       O  0.01616286  0.49511123  0.95648770    -0.79900
Cd1134     Cd  0.02593652  0.50384001  0.00257427     1.59700
Cd1135     Cd  0.98231288  0.49441033  0.01489274     1.59600
O1136       O  0.02804292  0.48188028  0.02139726    -0.79900
O1137       O  0.99889032  0.51064987  0.99830639    -1.90400
Cd1138     Cd  0.99300365  0.50606854  0.97103159     1.59900
O1139       O  0.99860145  0.47489736  0.03013226    -0.79900
O1140       O  0.98445533  0.53084734  0.95797231    -0.78500
C1141       C  0.96646630  0.52931337  0.03569940     0.84000
C1142       C  0.03625436  0.54338117  0.01679011     0.83600
O1143       O  0.98558890  0.55174434  0.98138402    -0.77500
C1144       C  0.03318885  0.49154816  0.96134545     0.84500
O1145       O  0.97622492  0.54019336  0.02518322    -0.77600
C1146       C  0.01643346  0.47190678  0.03086615     0.84600
C1147       C  0.96078357  0.47767912  0.98043592     0.84900
O1148       O  0.96311584  0.47922399  0.99827908    -0.80000
O1149       O  0.51923325  0.80005269  0.29954508    -0.77500
C1150       C  0.47413106  0.78217224  0.25688621     0.83500
O1151       O  0.47921674  0.77029282  0.33521555    -0.78600
O1152       O  0.46885915  0.72397463  0.28709657    -0.80100
O1153       O  0.53305667  0.74413487  0.26395379    -0.79900
O1154       O  0.54291188  0.77971731  0.29675804    -0.78500
Zn1155     Zn  0.49597558  0.78474523  0.29309329     1.55700
O1156       O  0.50436887  0.73344489  0.25573616    -0.79900
Cd1157     Cd  0.52818378  0.75498735  0.29064502     1.59700
Cd1158     Cd  0.49422926  0.74929901  0.32054254     1.59600
O1159       O  0.53772406  0.73544795  0.30950612    -0.79900
O1160       O  0.50086827  0.75844860  0.29481916    -1.90400
Cd1161     Cd  0.48596530  0.74507252  0.27511777     1.59900
O1162       O  0.51785494  0.73734843  0.33386242    -0.79900
O1163       O  0.47115841  0.76452624  0.25899627    -0.78500
C1164       C  0.47180430  0.78510434  0.32804991     0.84000
C1165       C  0.53679806  0.79615851  0.30077668     0.83600
O1166       O  0.48482650  0.79150056  0.26801142    -0.77500
C1167       C  0.52206489  0.73528013  0.25267162     0.84500
O1168       O  0.47646055  0.79112927  0.31182333    -0.77600
C1169       C  0.53301610  0.73101062  0.32627258     0.84600
C1170       C  0.46710475  0.71860092  0.30427025     0.84900
O1171       O  0.47578248  0.72693515  0.31769207    -0.80000
O1172       O  0.51736541  0.22355217  0.73220544    -0.77500
C1173       C  0.46509319  0.21441311  0.70077856     0.83500
O1174       O  0.51946553  0.24190518  0.66339399    -0.78600
O1175       O  0.46116771  0.27524709  0.69032321    -0.80100
O1176       O  0.49398088  0.28294555  0.74101244    -0.79900
O1177       O  0.52774214  0.25175793  0.74156342    -0.78500
Zn1178     Zn  0.50551065  0.22832542  0.70687632     1.55700
O1179       O  0.46714221  0.26698832  0.73608130    -0.79900
Cd1180     Cd  0.51322807  0.26966431  0.72339259     1.59700
Cd1181     Cd  0.50511407  0.26305808  0.67833261     1.59600
O1182       O  0.53086899  0.28966506  0.71034926    -0.79900
O1183       O  0.49927735  0.25429962  0.70436976    -1.90400
Cd1184     Cd  0.47187942  0.25625304  0.70919018     1.59900
O1185       O  0.52387651  0.28529225  0.67996167    -0.79900
O1186       O  0.45814182  0.23075072  0.70370449    -0.78500
C1187       C  0.52700019  0.22691725  0.67003690     0.84000
C1188       C  0.52630780  0.23395657  0.74393704     0.83600
O1189       O  0.48282491  0.21155795  0.70223447    -0.77500
C1190       C  0.47699569  0.27879622  0.74560030     0.84500
O1191       O  0.52377423  0.22140781  0.68682931    -0.77600
C1192       C  0.53280941  0.29406937  0.69292384     0.84600
C1193       C  0.46555796  0.28000519  0.67352996     0.84900
O1194       O  0.48085823  0.27437965  0.66568007    -0.80000
O1195       O  0.70296501  0.98772162  0.79194003    -0.77500
C1196       C  0.74272033  0.03334340  0.77268249     0.83500
O1197       O  0.66349571  0.02781587  0.76268430    -0.78600
O1198       O  0.71102972  0.03888646  0.71596387    -0.80100
O1199       O  0.73291610  0.97360527  0.73334698    -0.79900
O1200       O  0.70375617  0.96403239  0.77143491    -0.78500
Zn1201     Zn  0.70607734  0.01136108  0.77668744     1.55700
O1202       O  0.74172433  0.00216906  0.72325707    -0.79900
Cd1203     Cd  0.70695516  0.97879012  0.74612044     1.59700
Cd1204     Cd  0.67788288  0.01369116  0.74138720     1.59600
O1205       O  0.68591110  0.96923705  0.72842178    -0.79900
O1206       O  0.70361426  0.00630000  0.75014798    -1.90400
Cd1207     Cd  0.72329830  0.02083392  0.73602719     1.59900
O1208       O  0.66326196  0.99102820  0.72943178    -0.79900
O1209       O  0.74080497  0.03520108  0.75484071    -0.78500
C1210       C  0.66954468  0.03363856  0.77866356     0.84000
C1211       C  0.70191965  0.97016072  0.78829763     0.83600
O1212       O  0.73100813  0.02374753  0.78244456    -0.77500
C1213       C  0.74440201  0.98443338  0.72456184     0.84500
O1214       O  0.68564600  0.02882200  0.78508271    -0.77600
C1215       C  0.66940772  0.97499029  0.72399736     0.84600
C1216       C  0.69368412  0.04166371  0.71158979     0.84900
O1217       O  0.68031659  0.03303768  0.72002322    -0.80000
C1218       C  0.35280609  0.08763204  0.65664444     0.87500
C1219       C  0.36513812  0.07431877  0.64447028    -0.52800
C1220       C  0.37640576  0.08340765  0.63165784     0.10400
C1221       C  0.37448884  0.10500794  0.63221403     0.21300
C1222       C  0.36719991  0.10125888  0.66563252    -0.53500
C1223       C  0.37855873  0.11048233  0.65294389     0.10500
C1224       C  0.34203904  0.09953636  0.64215106    -0.53000
C1225       C  0.35321878  0.10856471  0.62931745     0.11100
H1226       H  0.36554366  0.05913786  0.64577407     0.15600
H1227       H  0.38350969  0.11241953  0.62174351     0.01300
H1228       H  0.36790497  0.10375322  0.68074870     0.15900
H1229       H  0.32667828  0.09993920  0.64156736     0.15700
C1230       C  0.58090862  0.85129202  0.64440132     0.87500
C1231       C  0.56934300  0.86082044  0.62858346    -0.52800
C1232       C  0.57949254  0.87340800  0.61798387     0.10400
C1233       C  0.60046677  0.87499499  0.62374137     0.21300
C1234       C  0.59785228  0.84239089  0.63417650    -0.53500
C1235       C  0.60822297  0.85465758  0.62345907     0.10500
C1236       C  0.58926539  0.86804020  0.65540607    -0.53000
C1237       C  0.59952548  0.88036143  0.64478421     0.11100
H1238       H  0.55433885  0.85919373  0.62631591     0.15600
H1239       H  0.60869677  0.88516614  0.61508107     0.01300
H1240       H  0.60129062  0.82752185  0.63534837     0.15900
H1241       H  0.58731502  0.86990986  0.67052324     0.15700
C1242       C  0.65613871  0.15390455  0.58241475     0.87500
C1243       C  0.66535607  0.14138763  0.59752926    -0.52800
C1244       C  0.65286565  0.13044272  0.60742745     0.10400
C1245       C  0.63211936  0.13298753  0.60118120     0.21300
C1246       C  0.64487814  0.13984134  0.56994203    -0.53500
C1247       C  0.63223868  0.12896649  0.57980629     0.10500
C1248       C  0.64079800  0.16503276  0.59284581    -0.53000
C1249       C  0.62829351  0.15420248  0.60257473     0.11100
H1250       H  0.68052351  0.14110365  0.60001599     0.15600
H1251       H  0.62179917  0.12440381  0.60931041     0.01300
H1252       H  0.64604943  0.13871472  0.55475728     0.15900
H1253       H  0.63965931  0.18030300  0.59224488     0.15700
C1254       C  0.34399357  0.86298868  0.41489396     0.87500
C1255       C  0.35710891  0.87556381  0.42711263    -0.52800
C1256       C  0.36993792  0.88588992  0.41693150     0.10400
C1257       C  0.36857294  0.88269631  0.39541760     0.21300
C1258       C  0.33492665  0.87673544  0.40084907    -0.53500
C1259       C  0.34763692  0.88700244  0.39047798     0.10500
C1260       C  0.35759920  0.85119754  0.40301996    -0.53000
C1261       C  0.37083561  0.86117145  0.39326221     0.11100
H1262       H  0.35656477  0.87662252  0.44234689     0.15600
H1263       H  0.37907613  0.89097186  0.38719740     0.01300
H1264       H  0.31972228  0.87779938  0.39888422     0.15900
H1265       H  0.35698815  0.83589304  0.40280725     0.15700
C1266       C  0.64721830  0.92354764  0.34757267     1.09900
C1267       C  0.63541206  0.90765975  0.33870676    -0.52800
C1268       C  0.62467011  0.89759697  0.35125076     0.10400
C1269       C  0.62644476  0.90486748  0.37179831     0.21300
C1270       C  0.63242691  0.93581153  0.35788846    -0.53500
C1271       C  0.62169336  0.92606445  0.37066905     0.10500
C1272       C  0.65846177  0.91421904  0.36357775    -0.53000
C1273       C  0.64774510  0.90450663  0.37623007     0.11100
H1274       H  0.63532243  0.90501100  0.32360269     0.15600
H1275       H  0.61779104  0.89697555  0.38224022     0.01300
H1276       H  0.63069751  0.95085064  0.35606757     0.15900
H1277       H  0.67375644  0.91533583  0.36486316     0.15700
C1278       C  0.42234545  0.16323420  0.35280691     0.87500
C1279       C  0.40794936  0.17281550  0.36597678    -0.52800
C1280       C  0.39776211  0.16064010  0.37700378     0.10400
C1281       C  0.40313504  0.13975383  0.37399406     0.21300
C1282       C  0.43469551  0.15167732  0.36653545    -0.53500
C1283       C  0.42472226  0.13930437  0.37760959     0.10500
C1284       C  0.41086240  0.14860103  0.34177964    -0.53000
C1285       C  0.40071989  0.13639992  0.35261349     0.11100
H1286       H  0.40592030  0.18797590  0.36648710     0.15600
H1287       H  0.39492812  0.12982930  0.38293311     0.01300
H1288       H  0.44985128  0.15329564  0.36790517     0.15900
H1289       H  0.41064791  0.14807453  0.32643047     0.15700
O1290       O  0.51492648  0.96585900  0.51576755    -0.77500
C1291       C  0.46368804  0.97319133  0.48066900     0.83500
O1292       O  0.53278772  0.00814986  0.46524855    -0.78600
O1293       O  0.47081795  0.03570605  0.47748188    -0.80100
O1294       O  0.48147369  0.01873736  0.54256068    -0.79900
O1295       O  0.51614594  0.98641346  0.53944815    -0.78500
Zn1296     Zn  0.50441066  0.98061113  0.49362497     1.55700
O1297       O  0.45904739  0.02038712  0.52057782    -0.79900
Cd1298     Cd  0.50542294  0.01070551  0.52758050     1.59700
Cd1299     Cd  0.51682707  0.02395129  0.48459181     1.59600
O1300       O  0.52599904  0.03105618  0.53115488    -0.79900
O1301       O  0.49999336  0.00686236  0.50015811    -1.90400
Cd1302     Cd  0.47276363  0.01298765  0.49569727     1.59900
O1303       O  0.53528192  0.03908221  0.50218786    -0.79900
O1304       O  0.45845010  0.99004557  0.48414242    -0.78500
C1305       C  0.53359227  0.99030327  0.46289347     0.84000
C1306       C  0.51909668  0.96998412  0.53281365     0.83600
O1307       O  0.48059482  0.96784267  0.48394511    -0.77500
C1308       C  0.46440793  0.02203426  0.53771757     0.84500
O1309       O  0.52359819  0.97913838  0.47286794    -0.77600
C1310       C  0.53670944  0.04046347  0.52014910     0.84600
C1311       C  0.48258168  0.04610351  0.46858708     0.84900
O1312       O  0.50042876  0.04339321  0.46967216    -0.80000
C1313       C  0.44874115  0.08081294  0.44566586    -0.27200
C1314       C  0.46013683  0.08903416  0.43170715     0.06400
C1315       C  0.47936997  0.08407791  0.43071603     0.26000
C1316       C  0.48676725  0.07044369  0.44301191    -0.11700
C1317       C  0.47512684  0.06158741  0.45652718    -0.25700
C1318       C  0.45607698  0.06732917  0.45799331     0.36800
C1319       C  0.45144441  0.10199444  0.41777300     0.06400
F1320       F  0.49076805  0.09178143  0.41734030    -0.19500
H1321       H  0.50148260  0.06645109  0.44159247     0.16200
F1322       F  0.44440010  0.05990462  0.47128506    -0.23200
H1323       H  0.43397601  0.08472409  0.44687348     0.18000
C1324       C  0.43586039  0.09599940  0.40696522     0.26000
C1325       C  0.42716941  0.10829495  0.39425797    -0.11700
C1326       C  0.43387692  0.12677584  0.39184646    -0.25700
C1327       C  0.44936479  0.13288986  0.40291812     0.36900
C1328       C  0.45811637  0.12052287  0.41564581    -0.27400
F1329       F  0.42924466  0.07807187  0.40845837    -0.19500
H1330       H  0.41531835  0.10317313  0.38611484     0.16200
F1331       F  0.45560813  0.15097983  0.40203697    -0.23200
H1332       H  0.46985773  0.12552335  0.42414870     0.18000
C1333       C  0.59807883  0.94321353  0.41544010    -0.27200
C1334       C  0.58377918  0.95502179  0.40839693     0.06400
C1335       C  0.58199225  0.95724410  0.38871340     0.26000
C1336       C  0.59426615  0.94770527  0.37643679    -0.11700
C1337       C  0.60828906  0.93563733  0.38357811    -0.25700
C1338       C  0.61012919  0.93352062  0.40320378     0.36800
C1339       C  0.57055363  0.96433705  0.42179237     0.06400
F1340       F  0.56808151  0.96817004  0.38135582    -0.19500
H1341       H  0.59269731  0.94954636  0.36132696     0.16200
F1342       F  0.62401739  0.92261096  0.41060661    -0.23200
H1343       H  0.59997577  0.94155373  0.43053387     0.18000
C1344       C  0.56157459  0.95365727  0.43589290     0.26000
C1345       C  0.54971593  0.96230598  0.44900838    -0.11700
C1346       C  0.54641123  0.98185692  0.44851079    -0.25700
C1347       C  0.55526124  0.99261491  0.43425884     0.36900
C1348       C  0.56718114  0.98386700  0.42100703    -0.27400
F1349       F  0.56404550  0.93470581  0.43685177    -0.19500
H1350       H  0.54314734  0.95354617  0.45969192     0.16200
F1351       F  0.55233240  0.01147544  0.43299202    -0.23200
H1352       H  0.57402872  0.99239554  0.41030965     0.18000
C1353       C  0.40061799  0.92838277  0.42897774    -0.27200
C1354       C  0.41093528  0.92172454  0.44455423     0.06400
C1355       C  0.40801552  0.90313540  0.45075572     0.26000
C1356       C  0.39472856  0.89155779  0.44167631    -0.11700
C1357       C  0.38434914  0.89820956  0.42609038    -0.25700
C1358       C  0.38757667  0.91669039  0.41966777     0.36800
C1359       C  0.42441613  0.93439348  0.45444413     0.06400
F1360       F  0.41767426  0.89635692  0.46586685    -0.19500
H1361       H  0.39257647  0.87732100  0.44678373     0.16200
F1362       F  0.37763567  0.92368499  0.40485260    -0.23200
H1363       H  0.40269401  0.94268954  0.42403552     0.18000
C1364       C  0.44394290  0.93074092  0.45430094     0.26000
C1365       C  0.45657276  0.94322411  0.46311692    -0.11700
C1366       C  0.44997987  0.95958178  0.47226590    -0.25700
C1367       C  0.43031217  0.96291038  0.47277867     0.36900
C1368       C  0.41773199  0.95047671  0.46383312    -0.27400
F1369       F  0.45083568  0.91541670  0.44511927    -0.19500
H1370       H  0.47158845  0.94026823  0.46242329     0.16200
F1371       F  0.42316757  0.97805857  0.48205873    -0.23200
H1372       H  0.40268929  0.95337027  0.46425980     0.18000
C1373       C  0.61124834  0.09148361  0.54737627    -0.27200
C1374       C  0.59230290  0.09112516  0.55340905     0.06400
C1375       C  0.58671240  0.10320592  0.56816156     0.26000
C1376       C  0.59982349  0.11531948  0.57666471    -0.11700
C1377       C  0.61874213  0.11571809  0.57064013    -0.25700
C1378       C  0.62438622  0.10365107  0.55588675     0.36800
C1379       C  0.57848837  0.07790451  0.54465561     0.06400
F1380       F  0.56844217  0.10361945  0.57407660    -0.19500
H1381       H  0.59505255  0.12469336  0.58776446     0.16200
F1382       F  0.64268592  0.10317927  0.55008392    -0.23200
H1383       H  0.61594965  0.08207870  0.53627458     0.18000
C1384       C  0.57612145  0.07691864  0.52493885     0.26000
C1385       C  0.56260562  0.06472393  0.51704135    -0.11700
C1386       C  0.55120068  0.05324098  0.52861685    -0.25700
C1387       C  0.55385686  0.05411566  0.54838466     0.36900
C1388       C  0.56734224  0.06627388  0.55619826    -0.27400
F1389       F  0.58648211  0.08813490  0.51333238    -0.19500
H1390       H  0.56096815  0.06441602  0.50183166     0.16200
F1391       F  0.54350349  0.04323124  0.56031500    -0.23200
H1392       H  0.56913699  0.06655512  0.57139788     0.18000
C1393       C  0.54571776  0.91004003  0.59851636    -0.27200
C1394       C  0.55331025  0.91333605  0.58054134     0.06400
C1395       C  0.56952669  0.90343729  0.57481211     0.26000
C1396       C  0.57801369  0.89041142  0.58700473    -0.11700
C1397       C  0.57025175  0.88687210  0.60489853    -0.25700
C1398       C  0.55402475  0.89689393  0.61060094     0.36800
C1399       C  0.54461759  0.92767729  0.56820188     0.06400
F1400       F  0.57740005  0.90675751  0.55764513    -0.19500
H1401       H  0.59058124  0.88303350  0.58243435     0.16200
F1402       F  0.54660288  0.89453229  0.62813233    -0.23200
H1403       H  0.53336423  0.91775350  0.60320978     0.18000
C1404       C  0.53586715  0.92256573  0.55113673     0.26000
C1405       C  0.52753566  0.93634647  0.53971612    -0.11700
C1406       C  0.52778787  0.95545034  0.54514057    -0.25700
C1407       C  0.53668539  0.96046649  0.56229184     0.36900
C1408       C  0.54487744  0.94665179  0.57370673    -0.27400
F1409       F  0.53505339  0.90421108  0.54573882    -0.19500
H1410       H  0.52077090  0.93202757  0.52667059     0.16200
F1411       F  0.53786898  0.97873664  0.56791943    -0.23200
H1412       H  0.55166008  0.95078590  0.58681159     0.18000
C1413       C  0.44298610  0.03832551  0.58435557    -0.27200
C1414       C  0.42478815  0.04387029  0.57871604     0.06400
C1415       C  0.41926066  0.04101228  0.55984807     0.26000
C1416       C  0.43200709  0.03340050  0.54677449    -0.11700
C1417       C  0.45052555  0.02844617  0.55220734    -0.25700
C1418       C  0.45570998  0.03058843  0.57135381     0.36800
C1419       C  0.41223045  0.05373584  0.59230648     0.06400
F1420       F  0.40188026  0.04647004  0.55381186    -0.19500
H1421       H  0.42748923  0.03189088  0.53222757     0.16200
F1422       F  0.47317535  0.02560135  0.57754815    -0.23200
H1423       H  0.44744682  0.04024782  0.59887957     0.18000
C1424       C  0.39373830  0.04731992  0.59596079     0.26000
C1425       C  0.38220238  0.05697029  0.60880793    -0.11700
C1426       C  0.38883482  0.07322529  0.61814017    -0.25700
C1427       C  0.40732065  0.07960972  0.61445939     0.36900
C1428       C  0.41888723  0.06988056  0.60174439    -0.27400
F1429       F  0.38696915  0.03153550  0.58741632    -0.19500
H1430       H  0.36797722  0.05183034  0.61133573     0.16200
F1431       F  0.41445421  0.09491322  0.62355452    -0.23200
H1432       H  0.43309287  0.07504666  0.59914131     0.18000
C1433       C  0.65695052  0.08710209  0.63871249    -0.27200
C1434       C  0.67107950  0.09269245  0.65156935     0.06400
C1435       C  0.67921581  0.11071104  0.64971057     0.26000
C1436       C  0.67322556  0.12285493  0.63536461    -0.11700
C1437       C  0.65898526  0.11733901  0.62261041    -0.25700
C1438       C  0.65092301  0.09926584  0.62437512     0.36800
C1439       C  0.67704584  0.07979580  0.66699223     0.06400
F1440       F  0.69256319  0.11680812  0.66210812    -0.19500
H1441       H  0.67952658  0.13676137  0.63443046     0.16200
F1442       F  0.63771545  0.09305398  0.61188420    -0.23200
H1443       H  0.65071579  0.07316436  0.63964378     0.18000
C1444       C  0.66348529  0.07107232  0.67858266     0.26000
C1445       C  0.66911762  0.05890858  0.69300302    -0.11700
C1446       C  0.68840729  0.05509894  0.69632415    -0.25700
C1447       C  0.70201825  0.06397979  0.68480006     0.36900
C1448       C  0.69633293  0.07615785  0.67027806    -0.27400
F1449       F  0.64474999  0.07461586  0.67625599    -0.19500
H1450       H  0.65821880  0.05248994  0.70163898     0.16200
F1451       F  0.72077418  0.06079151  0.68734907    -0.23200
H1452       H  0.70703271  0.08259584  0.66141115     0.18000
C1453       C  0.63078574  0.95701010  0.69079588    -0.27200
C1454       C  0.63715073  0.93859210  0.68719001     0.06400
C1455       C  0.65350498  0.93213116  0.69639137     0.26000
C1456       C  0.66353095  0.94397263  0.70852211    -0.11700
C1457       C  0.65751394  0.96254945  0.71193879    -0.25700
C1458       C  0.64083058  0.96893401  0.70307652     0.36800
C1459       C  0.62669100  0.92582344  0.67424644     0.06400
F1460       F  0.65964499  0.91417114  0.69394417    -0.19500
H1461       H  0.67613985  0.93849130  0.71524477     0.16200
F1462       F  0.63443171  0.98674560  0.70587446    -0.23200
H1463       H  0.61818882  0.96225674  0.68386406     0.18000
C1464       C  0.60728018  0.92231103  0.67683280     0.26000
C1465       C  0.59828607  0.90812885  0.66643052    -0.11700
C1466       C  0.60844782  0.89725536  0.65328944    -0.25700
C1467       C  0.62754446  0.90149198  0.64989141     0.36900
C1468       C  0.63654446  0.91571114  0.66026496    -0.27400
F1469       F  0.59731116  0.93167604  0.69026444    -0.19500
H1470       H  0.58348106  0.90516018  0.66912577     0.16200
F1471       F  0.63786233  0.89099251  0.63762553    -0.23200
H1472       H  0.65146731  0.91834526  0.65790653     0.18000
C1473       C  0.44777252  0.16557442  0.68609879    -0.27200
C1474       C  0.42956943  0.16946716  0.67911631     0.06400
C1475       C  0.42279202  0.18809366  0.68030438     0.26000
C1476       C  0.43416887  0.20246178  0.68787416    -0.11700
C1477       C  0.45254314  0.19865684  0.69450986    -0.25700
C1478       C  0.45914958  0.17991398  0.69369200     0.36800
C1479       C  0.41750884  0.15390239  0.67146966     0.06400
F1480       F  0.40499030  0.19238747  0.67455708    -0.19500
H1481       H  0.42863909  0.21668253  0.68826643     0.16200
F1482       F  0.47662792  0.17534903  0.70018425    -0.23200
H1483       H  0.45331217  0.15136228  0.68549433     0.18000
C1484       C  0.40752764  0.15576988  0.65431872     0.26000
C1485       C  0.39527512  0.14143060  0.64813369    -0.11700
C1486       C  0.39287092  0.12487421  0.65876598    -0.25700
C1487       C  0.40374612  0.12254229  0.67528301     0.36900
C1488       C  0.41579418  0.13693645  0.68156726    -0.27400
F1489       F  0.40972676  0.17136527  0.64343268    -0.19500
H1490       H  0.38728701  0.14352428  0.63524891     0.16200
F1491       F  0.40291345  0.10626271  0.68530901    -0.23200
H1492       H  0.42353941  0.13494246  0.69461909     0.18000
C1493       C  0.58376327  0.18228340  0.61012300    -0.27200
C1494       C  0.58262945  0.18278115  0.62990577     0.06400
C1495       C  0.59586626  0.17248201  0.64064528     0.26000
C1496       C  0.61025751  0.16235493  0.63165210    -0.11700
C1497       C  0.61171092  0.16254205  0.61193937    -0.25700
C1498       C  0.59821380  0.17229498  0.60119089     0.36800
C1499       C  0.56765847  0.19403506  0.63923462     0.06400
F1500       F  0.59539688  0.17290599  0.65981561    -0.19500
H1501       H  0.62071270  0.15501091  0.64006521     0.16200
F1502       F  0.59917838  0.17228757  0.58203573    -0.23200
H1503       H  0.57349780  0.18974150  0.60158765     0.18000
C1504       C  0.56461722  0.21307944  0.63446736     0.26000
C1505       C  0.55083906  0.22364151  0.64396913    -0.11700
C1506       C  0.54002217  0.21541549  0.65843122    -0.25700
C1507       C  0.54273776  0.19619724  0.66272223     0.36900
C1508       C  0.55637334  0.18569353  0.65318815    -0.27400
F1509       F  0.57549915  0.22167980  0.62121082    -0.19500
H1510       H  0.54912406  0.23840984  0.64050539     0.16200
F1511       F  0.53221392  0.18747480  0.67619064    -0.23200
H1512       H  0.55817136  0.17096053  0.65677066     0.18000
C1513       C  0.58069312  0.82019764  0.32099570    -0.27200
C1514       C  0.57415425  0.83862678  0.32414967     0.06400
C1515       C  0.55549936  0.84313598  0.31891994     0.26000
C1516       C  0.54365130  0.82940056  0.31095503    -0.11700
C1517       C  0.55010626  0.81087298  0.30791167    -0.25700
C1518       C  0.56887800  0.80644428  0.31301887     0.36800
C1519       C  0.58721889  0.85320095  0.33193686     0.06400
F1520       F  0.54884983  0.86095111  0.32101656    -0.19500
H1521       H  0.52933279  0.83332125  0.30719700     0.16200
F1522       F  0.57579114  0.78875270  0.31073051    -0.23200
H1523       H  0.59500729  0.81638482  0.32489868     0.18000
C1524       C  0.58207158  0.86478073  0.34727684     0.26000
C1525       C  0.59443176  0.87890396  0.35376844    -0.11700
C1526       C  0.61216531  0.88168701  0.34518753    -0.25700
C1527       C  0.61755297  0.86952333  0.33035647     0.36900
C1528       C  0.60517070  0.85557776  0.32381525    -0.27400
F1529       F  0.56521174  0.86230749  0.35613508    -0.19500
H1530       H  0.58990898  0.88794181  0.36523589     0.16200
F1531       F  0.63492297  0.87083118  0.32228021    -0.23200
H1532       H  0.60955981  0.84671987  0.31214260     0.18000
C1533       C  0.42864887  0.81490665  0.33715344    -0.27200
C1534       C  0.43087868  0.81964089  0.35626522     0.06400
C1535       C  0.44639491  0.81217081  0.36634235     0.26000
C1536       C  0.45932861  0.80021045  0.35739722    -0.11700
C1537       C  0.45722766  0.79586524  0.33822046    -0.25700
C1538       C  0.44172957  0.80325704  0.32815983     0.36800
C1539       C  0.41632377  0.83126226  0.36588432     0.06400
F1540       F  0.44934249  0.81683148  0.38471321    -0.19500
H1541       H  0.47133755  0.79489633  0.36525985     0.16200
F1542       F  0.43909464  0.79897890  0.30962869    -0.23200
H1543       H  0.41659313  0.82000389  0.32922101     0.18000
C1544       C  0.40908001  0.84793153  0.35778999     0.26000
C1545       C  0.39457410  0.85795641  0.36686340    -0.11700
C1546       C  0.38709369  0.85151033  0.38406240    -0.25700
C1547       C  0.39502020  0.83528551  0.39243275     0.36900
C1548       C  0.40912400  0.82518695  0.38325791    -0.27400
F1549       F  0.41608346  0.85458310  0.34122352    -0.19500
H1550       H  0.38897819  0.87050643  0.36026077     0.16200
F1551       F  0.38943066  0.82921369  0.40973763    -0.23200
H1552       H  0.41428356  0.81236626  0.38974163     0.18000
C1553       C  0.05919828  0.58674593  0.03893209    -0.27200
C1554       C  0.07768265  0.58034019  0.04224157     0.06400
C1555       C  0.08257445  0.56195518  0.03673220     0.26000
C1556       C  0.06913044  0.55018309  0.02824009    -0.11700
C1557       C  0.05050174  0.55644774  0.02508975    -0.25700
C1558       C  0.04569985  0.57498560  0.03048073     0.36800
C1559       C  0.09169637  0.59283834  0.05160720     0.06400
F1560       F  0.10044799  0.55546442  0.03929891    -0.19500
H1561       H  0.07334660  0.53607286  0.02420893     0.16200
F1562       F  0.02792650  0.58174131  0.02791546    -0.23200
H1563       H  0.05511258  0.60082664  0.04321375     0.18000
C1564       C  0.09537075  0.61099295  0.04454807     0.26000
C1565       C  0.10852256  0.62271561  0.05353961    -0.11700
C1566       C  0.11818939  0.61663222  0.06978408    -0.25700
C1567       C  0.11447829  0.59848444  0.07688395     0.36900
C1568       C  0.10137764  0.58670468  0.06781272    -0.27400
F1569       F  0.08651312  0.61725285  0.02873636    -0.19500
H1570       H  0.11104080  0.63667657  0.04787078     0.16200
F1571       F  0.12390116  0.59189405  0.09221646    -0.23200
H1572       H  0.09868628  0.57278764  0.07351681     0.18000
C1573       C  0.94300900  0.56506146  0.06838541    -0.27200
C1574       C  0.92951991  0.55391307  0.07773672     0.06400
C1575       C  0.92848639  0.53455297  0.07345407     0.26000
C1576       C  0.94063298  0.52662034  0.05998667    -0.11700
C1577       C  0.95400089  0.53780620  0.05039665    -0.25700
C1578       C  0.95512214  0.55719245  0.05489696     0.36800
C1579       C  0.91634037  0.56267067  0.09156581     0.06400
F1580       F  0.91590089  0.52323030  0.08249124    -0.19500
H1581       H  0.93943281  0.51169546  0.05695406     0.16200
F1582       F  0.96792890  0.56865534  0.04635009    -0.23200
H1583       H  0.94397378  0.58002751  0.07131635     0.18000
C1584       C  0.92313090  0.57437909  0.10619635     0.26000
C1585       C  0.91049691  0.58290781  0.11880565    -0.11700
C1586       C  0.89099079  0.57972773  0.11716668    -0.25700
C1587       C  0.88414582  0.56806432  0.10264754     0.36900
C1588       C  0.89672515  0.55967696  0.08992244    -0.27400
F1589       F  0.94199166  0.57720688  0.10857380    -0.19500
H1590       H  0.91595008  0.59174856  0.13005538     0.16200
F1591       F  0.86526138  0.56512232  0.10057086    -0.23200
H1592       H  0.89112218  0.55102015  0.07860002     0.18000
C1593       C  0.05082023  0.43811993  0.05466708    -0.27200
C1594       C  0.03885440  0.42777230  0.06661932     0.06400
C1595       C  0.01932149  0.43169434  0.06642712     0.26000
C1596       C  0.01206649  0.44590059  0.05472558    -0.11700
C1597       C  0.02410205  0.45649264  0.04295061    -0.25700
C1598       C  0.04362910  0.45220622  0.04291579     0.36800
C1599       C  0.04703393  0.41345249  0.07963087     0.06400
F1600       F  0.00719844  0.42162125  0.07736721    -0.19500
H1601       H  0.99700021  0.44865590  0.05497207     0.16200
F1602       F  0.05595055  0.46162511  0.03160747    -0.23200
H1603       H  0.06592458  0.43553972  0.05467133     0.18000
C1604       C  0.06019646  0.40003212  0.07311926     0.26000
C1605       C  0.06861830  0.38738979  0.08574048    -0.11700
C1606       C  0.06412269  0.38787099  0.10500344    -0.25700
C1607       C  0.05074469  0.40097568  0.11151063     0.36900
C1608       C  0.04234446  0.41367453  0.09893455    -0.27400
F1609       F  0.06473417  0.39895973  0.05451646    -0.19500
H1610       H  0.07843963  0.37701930  0.08040796     0.16200
F1611       F  0.04626538  0.40188320  0.13013696    -0.23200
H1612       H  0.03251734  0.42403135  0.10438256     0.18000
C1613       C  0.93233351  0.59655108  0.90370543    -0.27200
C1614       C  0.94731097  0.60305749  0.91504951     0.06400
C1615       C  0.95246727  0.62220913  0.91413861     0.26000
C1616       C  0.94275767  0.63451848  0.90208997    -0.11700
C1617       C  0.92768260  0.62801604  0.89080961    -0.25700
C1618       C  0.92256632  0.60884923  0.89174761     0.36800
C1619       C  0.95748949  0.58961765  0.92752244     0.06400
F1620       F  0.96722075  0.62890241  0.92447518    -0.19500
H1621       H  0.94702531  0.64918788  0.90158178     0.16200
F1622       F  0.90865338  0.60176115  0.88056510    -0.23200
H1623       H  0.92818334  0.58184083  0.90411822     0.18000
C1624       C  0.95921102  0.59292550  0.94704071     0.26000
C1625       C  0.96765515  0.57944373  0.95876530    -0.11700
C1626       C  0.97450146  0.56234952  0.95131965    -0.25700
C1627       C  0.97324282  0.55934785  0.93165100     0.36900
C1628       C  0.96476421  0.57282026  0.91997488    -0.27400
F1629       F  0.95193825  0.60878459  0.95492034    -0.19500
H1630       H  0.96832538  0.58219084  0.97380515     0.16200
F1631       F  0.98009311  0.54337573  0.92362218    -0.23200
H1632       H  0.96374269  0.57007178  0.90494869     0.18000
C1633       C  0.07674864  0.43992121  0.89686412    -0.27200
C1634       C  0.08333243  0.45565427  0.90707675     0.06400
C1635       C  0.10198753  0.46199319  0.90403196     0.26000
C1636       C  0.11356497  0.45300566  0.89075626    -0.11700
C1637       C  0.10691019  0.43737695  0.88048623    -0.25700
C1638       C  0.08842681  0.43079314  0.88375840     0.36800
C1639       C  0.07068581  0.46536657  0.92078585     0.06400
F1640       F  0.10888478  0.47715420  0.91355236    -0.19500
H1641       H  0.12783961  0.45817766  0.88857564     0.16200
F1642       F  0.08144774  0.41591011  0.87387114    -0.23200
H1643       H  0.06252912  0.43463572  0.89910865     0.18000
C1644       C  0.05230383  0.47090754  0.91557209     0.26000
C1645       C  0.04036623  0.47966136  0.92868597    -0.11700
C1646       C  0.04644358  0.48313201  0.94730888    -0.25700
C1647       C  0.06501445  0.47782449  0.95240903     0.36900
C1648       C  0.07690175  0.46903046  0.93927777    -0.27400
F1649       F  0.04595694  0.46812029  0.89768078    -0.19500
H1650       H  0.02626452  0.48362775  0.92422744     0.16200
F1651       F  0.07170543  0.48081375  0.97014788    -0.23200
H1652       H  0.09093322  0.46476326  0.94368647     0.18000
C1653       C  0.89308790  0.43190614  0.93387090    -0.27200
C1654       C  0.90462887  0.42634753  0.94906109     0.06400
C1655       C  0.90306048  0.40776864  0.95590602     0.26000
C1656       C  0.89045098  0.39502442  0.94746499    -0.11700
C1657       C  0.87941275  0.40047349  0.93192199    -0.25700
C1658       C  0.88068127  0.41908817  0.92528844     0.36800
C1659       C  0.91865531  0.43977329  0.95722308     0.06400
F1660       F  0.91429640  0.40168448  0.97020137    -0.19500
H1661       H  0.88974287  0.38068371  0.95267538     0.16200
F1662       F  0.86970304  0.42496928  0.91070660    -0.23200
H1663       H  0.89373926  0.44621942  0.92858880     0.18000
C1664       C  0.93102774  0.44988366  0.94540229     0.26000
C1665       C  0.94443304  0.46221264  0.95309360    -0.11700
C1666       C  0.94594963  0.46478920  0.97276394    -0.25700
C1667       C  0.93343304  0.45475075  0.98461883     0.36900
C1668       C  0.91995618  0.44241236  0.97686920    -0.27400
F1669       F  0.93059016  0.44741720  0.92638339    -0.19500
H1670       H  0.95383300  0.46958878  0.94352431     0.16200
F1671       F  0.93413611  0.45678250  0.00367511    -0.23200
H1672       H  0.91042865  0.43495825  0.98625405     0.18000
C1673       C  0.06912621  0.33358201  0.80304525    -0.27200
C1674       C  0.07136450  0.33758399  0.82240734     0.06400
C1675       C  0.06127599  0.32668039  0.83557783     0.26000
C1676       C  0.04915204  0.31230238  0.82948354    -0.11700
C1677       C  0.04656663  0.30843406  0.81009966    -0.25700
C1678       C  0.05692242  0.31916247  0.79690194     0.36800
C1679       C  0.08341136  0.35371107  0.82868884     0.06400
F1680       F  0.06240957  0.33046065  0.85435171    -0.19500
H1681       H  0.04143266  0.30443947  0.84009972     0.16200
F1682       F  0.05513187  0.31596143  0.77808113    -0.23200
H1683       H  0.07679852  0.34174619  0.79261978     0.18000
C1684       C  0.09689868  0.35171131  0.84324163     0.26000
C1685       C  0.10777517  0.36720481  0.84913720    -0.11700
C1686       C  0.10572772  0.38483566  0.84040941    -0.25700
C1687       C  0.09223170  0.38687340  0.82593756     0.36900
C1688       C  0.08120343  0.37147090  0.82019770    -0.27400
F1689       F  0.10008932  0.33464660  0.85128047    -0.19500
H1690       H  0.11831023  0.36526706  0.86008777     0.16200
F1691       F  0.08950196  0.40383599  0.81752380    -0.23200
H1692       H  0.07076897  0.37346100  0.80916559     0.18000
C1693       C  0.94207469  0.31200854  0.86555058    -0.27200
C1694       C  0.92763603  0.32158803  0.85584904     0.06400
C1695       C  0.92622303  0.31939503  0.83617171     0.26000
C1696       C  0.93833334  0.30718666  0.82657912    -0.11700
C1697       C  0.95241103  0.29702424  0.83623871    -0.25700
C1698       C  0.95440771  0.29984519  0.85587661     0.36800
C1699       C  0.91327814  0.33282340  0.86626651     0.06400
F1700       F  0.91307149  0.32910368  0.82616092    -0.19500
H1701       H  0.93665065  0.30574155  0.81143582     0.16200
F1702       F  0.96783808  0.29048851  0.86583675    -0.23200
H1703       H  0.94342389  0.31350102  0.88072344     0.18000
C1704       C  0.89389401  0.32912148  0.86352627     0.26000
C1705       C  0.88028843  0.33928424  0.87345786    -0.11700
C1706       C  0.88560094  0.35326920  0.88645147    -0.25700
C1707       C  0.90491602  0.35723707  0.88915226     0.36900
C1708       C  0.91867061  0.34697668  0.87917379    -0.27400
F1709       F  0.88807643  0.31508257  0.85181475    -0.19500
H1710       H  0.86547101  0.33590924  0.87132092     0.16200
F1711       F  0.91046692  0.37030189  0.90205966    -0.23200
H1712       H  0.93351605  0.34998664  0.88157767     0.18000
C1713       C  0.81903484  0.42201240  0.86545175    -0.27200
C1714       C  0.82986004  0.42289586  0.84883401     0.06400
C1715       C  0.84668830  0.41232766  0.84776661     0.26000
C1716       C  0.85223618  0.40084009  0.86282784    -0.11700
C1717       C  0.84115623  0.39957458  0.87922396    -0.25700
C1718       C  0.82458450  0.41051565  0.88051873     0.36800
C1719       C  0.82374940  0.43504226  0.83282376     0.06400
F1720       F  0.85747952  0.41259851  0.83190820    -0.19500
H1721       H  0.86495284  0.39246590  0.86140631     0.16200
F1722       F  0.81395062  0.41046406  0.89648348    -0.23200
H1723       H  0.80633554  0.43041556  0.86685480     0.18000
C1724       C  0.80504405  0.43453159  0.82590813     0.26000
C1725       C  0.79964409  0.44603764  0.81073001    -0.11700
C1726       C  0.81276997  0.45823403  0.80209009    -0.25700
C1727       C  0.83148599  0.45870842  0.80914970     0.36900
C1728       C  0.83678015  0.44732170  0.82432514    -0.27400
F1729       F  0.79208207  0.42260761  0.83353472    -0.19500
H1730       H  0.78518505  0.44531518  0.80568798     0.16200
F1731       F  0.84475967  0.47038446  0.80166208    -0.23200
H1732       H  0.85114499  0.44827930  0.82960523     0.18000
C1733       C  0.83752698  0.57947878  0.80874103    -0.27200
C1734       C  0.85644883  0.57570508  0.81325318     0.06400
C1735       C  0.86494525  0.55928450  0.80607779     0.26000
C1736       C  0.85475190  0.54716241  0.79416099    -0.11700
C1737       C  0.83591993  0.55120570  0.78912502    -0.25700
C1738       C  0.82733550  0.56747357  0.79680979     0.36800
C1739       C  0.86736516  0.58967061  0.82445666     0.06400
F1740       F  0.88307545  0.55494467  0.81064900    -0.19500
H1741       H  0.86169098  0.53467820  0.78875515     0.16200
F1742       F  0.80914408  0.57203484  0.79269998    -0.23200
H1743       H  0.83075670  0.59209476  0.81407992     0.18000
C1744       C  0.88372460  0.59799760  0.81694450     0.26000
C1745       C  0.89272266  0.61272016  0.82653036    -0.11700
C1746       C  0.88552559  0.61979154  0.84373741    -0.25700
C1747       C  0.86973564  0.61057797  0.85176178     0.36900
C1748       C  0.86065172  0.59587490  0.84205053    -0.27400
F1749       F  0.89048431  0.59256574  0.79983575    -0.19500
H1750       H  0.90532553  0.61868750  0.82021766     0.16200
F1751       F  0.86257579  0.61591328  0.86864773    -0.23200
H1752       H  0.84812971  0.58947553  0.84815237     0.18000
C1753       C  0.17943694  0.32250905  0.07748564    -0.27200
C1754       C  0.16120942  0.32605621  0.07040368     0.06400
C1755       C  0.15753349  0.32232885  0.05122477     0.26000
C1756       C  0.17191417  0.31553091  0.03940326    -0.11700
C1757       C  0.19033184  0.31231225  0.04636829    -0.25700
C1758       C  0.19384140  0.31574594  0.06569749     0.36800
C1759       C  0.14624094  0.33373022  0.08309596     0.06400
F1760       F  0.13997484  0.32506786  0.04393961    -0.19500
H1761       H  0.16863851  0.31304241  0.02466026     0.16200
F1762       F  0.21129734  0.31307001  0.07321835    -0.23200
H1763       H  0.18266504  0.32538959  0.09217152     0.18000
C1764       C  0.14227160  0.32509223  0.10049662     0.26000
C1765       C  0.12834700  0.33243979  0.11243629    -0.11700
C1766       C  0.11776766  0.34850081  0.10735233    -0.25700
C1767       C  0.12209440  0.35739478  0.09005581     0.36900
C1768       C  0.13608707  0.34999549  0.07808551    -0.27400
F1769       F  0.15153779  0.30920877  0.10578787    -0.19500
H1770       H  0.12590089  0.32541860  0.12578219     0.16200
F1771       F  0.11263872  0.37294064  0.08432087    -0.23200
H1772       H  0.13908822  0.35707932  0.06486870     0.18000
C1773       C  0.17654724  0.35709600  0.94098027    -0.27200
C1774       C  0.18507945  0.37205870  0.93131306     0.06400
C1775       C  0.20354151  0.37766020  0.93627412     0.26000
C1776       C  0.21361282  0.36770325  0.95010359    -0.11700
C1777       C  0.20545295  0.35193984  0.95903101    -0.25700
C1778       C  0.18655434  0.34708251  0.95465122     0.36800
C1779       C  0.17489956  0.38080584  0.91533470     0.06400
F1780       F  0.21188384  0.39255259  0.92754699    -0.19500
H1781       H  0.22802843  0.37187319  0.95327419     0.16200
F1782       F  0.17778263  0.33234582  0.96322497    -0.23200
H1783       H  0.16228856  0.35268922  0.93740400     0.18000
C1784       C  0.18217937  0.37954790  0.89693616     0.26000
C1785       C  0.17191774  0.38672792  0.88169669    -0.11700
C1786       C  0.15430809  0.39553146  0.88450080    -0.25700
C1787       C  0.14700887  0.39668815  0.90299305     0.36900
C1788       C  0.15717478  0.38919934  0.91820021    -0.27400
F1789       F  0.19899961  0.37093639  0.89365332    -0.19500
H1790       H  0.17779996  0.38539949  0.86763578     0.16200
F1791       F  0.13052317  0.40575666  0.90660694    -0.23200
H1792       H  0.15133500  0.39017275  0.93231599     0.18000
C1793       C  0.91413496  0.14008622  0.81783702    -0.27200
C1794       C  0.91326155  0.15832966  0.82551058     0.06400
C1795       C  0.90134373  0.16162994  0.84111689     0.26000
C1796       C  0.89053490  0.14688672  0.84877988    -0.11700
C1797       C  0.89121402  0.12876636  0.84082360    -0.25700
C1798       C  0.90325592  0.12545118  0.82536954     0.36800
C1799       C  0.92512343  0.17359702  0.81729595     0.06400
F1800       F  0.90028440  0.17902789  0.84904813    -0.19500
H1801       H  0.88119317  0.14974434  0.86056761     0.16200
F1802       F  0.90453983  0.10801032  0.81756327    -0.23200
H1803       H  0.92311941  0.13720821  0.80578333     0.18000
C1804       C  0.94458624  0.17078126  0.81441069     0.26000
C1805       C  0.95578066  0.18506395  0.80667977    -0.11700
C1806       C  0.94794822  0.20261215  0.80173205    -0.25700
C1807       C  0.92834772  0.20533670  0.80433986     0.36900
C1808       C  0.91710202  0.19093284  0.81204038    -0.27400
F1809       F  0.95296799  0.15442401  0.81973668    -0.19500
H1810       H  0.97080185  0.18249075  0.80511557     0.16200
F1811       F  0.92004239  0.22193775  0.79972432    -0.23200
H1812       H  0.90207749  0.19330852  0.81387848     0.18000
C1813       C  0.92911209  0.03082792  0.92325512    -0.27200
C1814       C  0.92611776  0.05040983  0.92389609     0.06400
C1815       C  0.93478576  0.06099361  0.93829305     0.26000
C1816       C  0.94664692  0.05224541  0.95137106    -0.11700
C1817       C  0.95005600  0.03270479  0.95057768    -0.25700
C1818       C  0.94097153  0.02200234  0.93642764     0.36800
C1819       C  0.91384944  0.05968997  0.90965037     0.06400
F1820       F  0.93147893  0.07976617  0.93998768    -0.19500
H1821       H  0.95311419  0.06087760  0.96224645     0.16200
F1822       F  0.94379197  0.00313261  0.93502908    -0.23200
H1823       H  0.92248356  0.02239896  0.91231386     0.18000
C1824       C  0.92026743  0.07546448  0.89938754     0.26000
C1825       C  0.90841645  0.08424285  0.88622000    -0.11700
C1826       C  0.89009200  0.07732958  0.88287018    -0.25700
C1827       C  0.88367747  0.06155922  0.89313782     0.36900
C1828       C  0.89549843  0.05282272  0.90632826    -0.27400
F1829       F  0.93814370  0.08212415  0.90178168    -0.19500
H1830       H  0.91366356  0.09629994  0.87841389     0.16200
F1831       F  0.86573800  0.05500672  0.89096057    -0.23200
H1832       H  0.89019053  0.04085799  0.91423686     0.18000
C1833       C  0.77468903  0.05333778  0.81089549    -0.27200
C1834       C  0.79157337  0.05659666  0.80091140     0.06400
C1835       C  0.79206536  0.05258108  0.78141971     0.26000
C1836       C  0.77594936  0.04562154  0.77221810    -0.11700
C1837       C  0.75918233  0.04208783  0.78230099    -0.25700
C1838       C  0.75871640  0.04604225  0.80179257     0.36800
C1839       C  0.80845459  0.06406933  0.81107644     0.06400
F1840       F  0.80830309  0.05463500  0.77138343    -0.19500
H1841       H  0.77679682  0.04238736  0.75728177     0.16200
F1842       F  0.74278218  0.04302740  0.81208225    -0.23200
H1843       H  0.77382151  0.05651476  0.82584137     0.18000
C1844       C  0.81900094  0.07924310  0.80382036     0.26000
C1845       C  0.83406837  0.08687461  0.81412011    -0.11700
C1846       C  0.83903133  0.07973510  0.83206080    -0.25700
C1847       C  0.82813218  0.06469581  0.83938318     0.36900
C1848       C  0.81333428  0.05681455  0.82887072    -0.27400
F1849       F  0.81394010  0.08767151  0.78737480    -0.19500
H1850       H  0.84083467  0.09919638  0.80828551     0.16200
F1851       F  0.83110316  0.05816842  0.85715648    -0.23200
H1852       H  0.80530892  0.04527388  0.83492108     0.18000
C1853       C  0.04302640  0.89346997  0.91828185    -0.27200
C1854       C  0.04863502  0.91251295  0.91843679     0.06400
C1855       C  0.06358613  0.91817141  0.90659090     0.26000
C1856       C  0.07280276  0.90507730  0.89513576    -0.11700
C1857       C  0.06702022  0.88616684  0.89455089    -0.25700
C1858       C  0.05206262  0.88039561  0.90642699     0.36800
C1859       C  0.03966381  0.92635343  0.93148124     0.06400
F1860       F  0.06906725  0.93651563  0.90575355    -0.19500
H1861       H  0.08431674  0.90994292  0.88643946     0.16200
F1862       F  0.04660647  0.86204733  0.90708929    -0.23200
H1863       H  0.03185987  0.88864809  0.92758983     0.18000
C1864       C  0.01987397  0.92832800  0.93278444     0.26000
C1865       C  0.01195162  0.94206533  0.94470152    -0.11700
C1866       C  0.02358489  0.95408138  0.95555364    -0.25700
C1867       C  0.04340636  0.95184041  0.95429128     0.36900
C1868       C  0.05120868  0.93811710  0.94252877    -0.27400
F1869       F  0.00821655  0.91739119  0.92213839    -0.19500
H1870       H  0.99669658  0.94337481  0.94531310     0.16200
F1871       F  0.05545842  0.96295354  0.96430536    -0.23200
H1872       H  0.06646392  0.93668947  0.94205246     0.18000
C1873       C  0.92137406  0.93428001  0.02450670    -0.27200
C1874       C  0.91813181  0.93457448  0.04408973     0.06400
C1875       C  0.92849025  0.94725454  0.05533988     0.26000
C1876       C  0.94177251  0.95937722  0.04715181    -0.11700
C1877       C  0.94518686  0.95915078  0.02753246    -0.25700
C1878       C  0.93481726  0.94634986  0.01626587     0.36800
C1879       C  0.90434766  0.92139410  0.05291436     0.06400
F1880       F  0.92553012  0.94814893  0.07427491    -0.19500
H1881       H  0.94938232  0.96902229  0.05630001     0.16200
F1882       F  0.93776921  0.94527294  0.99735647    -0.23200
H1883       H  0.91369286  0.92444387  0.01562049     0.18000
C1884       C  0.88531937  0.92073188  0.04706548     0.26000
C1885       C  0.87241892  0.90866933  0.05610888    -0.11700
C1886       C  0.87826652  0.89708984  0.07112934    -0.25700
C1887       C  0.89742579  0.89749210  0.07662451     0.36900
C1888       C  0.91023813  0.90956394  0.06765005    -0.27400
F1889       F  0.87909441  0.93216971  0.03302904    -0.19500
H1890       H  0.85776759  0.90863388  0.05160202     0.16200
F1891       F  0.90400801  0.88579817  0.09026338    -0.23200
H1892       H  0.92490405  0.90957956  0.07213075     0.18000
C1893       C  0.93510096  0.11522016  0.07717552    -0.27200
C1894       C  0.94406041  0.09899014  0.08421051     0.06400
C1895       C  0.94538356  0.09655226  0.10393207     0.26000
C1896       C  0.93734208  0.10974739  0.11621673    -0.11700
C1897       C  0.92809740  0.12567771  0.10910449    -0.25700
C1898       C  0.92727724  0.12852407  0.08951896     0.36800
C1899       C  0.95225918  0.08488072  0.07098496     0.06400
F1900       F  0.95491154  0.08170609  0.11135015    -0.19500
H1901       H  0.93838351  0.10759188  0.13133384     0.16200
F1902       F  0.91941165  0.14440762  0.08236477    -0.23200
H1903       H  0.93411159  0.11756486  0.06209021     0.18000
C1904       C  0.94865889  0.06550020  0.07330809     0.26000
C1905       C  0.95712472  0.05230313  0.06134086    -0.11700
C1906       C  0.96899879  0.05808377  0.04649007    -0.25700
C1907       C  0.97203909  0.07752255  0.04369496     0.36900
C1908       C  0.96382036  0.09073320  0.05591160    -0.27400
F1909       F  0.93656658  0.05930580  0.08686253    -0.19500
H1910       H  0.95411043  0.03748294  0.06353444     0.16200
F1911       F  0.98330333  0.08378105  0.02948126    -0.23200
H1912       H  0.96675033  0.10557646  0.05377370     0.18000
C1913       C  0.04835526  0.96168059  0.08067475    -0.27200
C1914       C  0.06797357  0.96486122  0.07960499     0.06400
C1915       C  0.07498209  0.97670960  0.06520484     0.26000
C1916       C  0.06265028  0.98472090  0.05201650    -0.11700
C1917       C  0.04307048  0.98150050  0.05313370    -0.25700
C1918       C  0.03599530  0.97003600  0.06774769     0.36800
C1919       C  0.08099637  0.95531164  0.09309928     0.06400
F1920       F  0.09371991  0.98081367  0.06399158    -0.19500
H1921       H  0.06842291  0.99360439  0.04097925     0.16200
F1922       F  0.01720405  0.96620998  0.06908932    -0.23200
H1923       H  0.04256480  0.95230937  0.09127771     0.18000
C1924       C  0.07680328  0.95422879  0.11256556     0.26000
C1925       C  0.08908393  0.94486759  0.12492937    -0.11700
C1926       C  0.10579235  0.93667272  0.11816980    -0.25700
C1927       C  0.11031509  0.93826687  0.09896116     0.36900
C1928       C  0.09783179  0.94707638  0.08650062    -0.27400
F1929       F  0.06119710  0.96273521  0.11975955    -0.19500
H1930       H  0.08573181  0.94427180  0.13985112     0.16200
F1931       F  0.12727837  0.93223652  0.09240953    -0.23200
H1932       H  0.10145428  0.94755409  0.07165019     0.18000
C1933       C  0.04905224  0.18432713  0.84607824    -0.27200
C1934       C  0.06147384  0.19265435  0.85908674     0.06400
C1935       C  0.05939417  0.21187570  0.86353899     0.26000
C1936       C  0.04571356  0.22278513  0.85432533    -0.11700
C1937       C  0.03409109  0.21474209  0.84035165    -0.25700
C1938       C  0.03552239  0.19522472  0.83672238     0.36800
C1939       C  0.07734454  0.18158065  0.86698342     0.06400
F1940       F  0.07087929  0.22015258  0.87652237    -0.19500
H1941       H  0.04485213  0.23770925  0.85745724     0.16200
F1942       F  0.02413049  0.18671919  0.82379975    -0.23200
H1943       H  0.05036173  0.16951245  0.84258347     0.18000
C1944       C  0.07409425  0.16517871  0.87760157     0.26000
C1945       C  0.08931797  0.15545789  0.88565013    -0.11700
C1946       C  0.10800343  0.16167487  0.88297456    -0.25700
C1947       C  0.11123041  0.17756514  0.87148238     0.36900
C1948       C  0.09602686  0.18746317  0.86371856    -0.27400
F1949       F  0.05617515  0.15909811  0.88097087    -0.19500
H1950       H  0.08632337  0.14377918  0.89477226     0.16200
F1951       F  0.12910305  0.18370829  0.86797434    -0.23200
H1952       H  0.09882360  0.19983016  0.85518558     0.18000
C1953       C  0.05701926  0.08446381  0.96166542    -0.27200
C1954       C  0.07487628  0.07764746  0.95632841     0.06400
C1955       C  0.07931967  0.05870420  0.95991507     0.26000
C1956       C  0.06603836  0.04678732  0.96851129    -0.11700
C1957       C  0.04802296  0.05347981  0.97376277    -0.25700
C1958       C  0.04372416  0.07260011  0.97033599     0.36800
C1959       C  0.08853716  0.09022133  0.94651414     0.06400
F1960       F  0.09627129  0.05155127  0.95449058    -0.19500
H1961       H  0.06981293  0.03217768  0.97078420     0.16200
F1962       F  0.02669365  0.07991130  0.97527195    -0.23200
H1963       H  0.05336848  0.09906179  0.95908742     0.18000
C1964       C  0.08358651  0.09886981  0.92941650     0.26000
C1965       C  0.09642433  0.11069946  0.92015931    -0.11700
C1966       C  0.11425478  0.11487228  0.92800171    -0.25700
C1967       C  0.11940839  0.10568404  0.94493566     0.36900
C1968       C  0.10666598  0.09346457  0.95400713    -0.27400
F1969       F  0.06639414  0.09561506  0.92145238    -0.19500
H1970       H  0.09215756  0.11658579  0.90688913     0.16200
F1971       F  0.13693595  0.10792110  0.95246358    -0.23200
H1972       H  0.11089042  0.08664948  0.96702349     0.18000
C1973       C  0.21172292  0.21402226  0.95787080    -0.27200
C1974       C  0.19415814  0.21575787  0.94874636     0.06400
C1975       C  0.18633079  0.23385262  0.94638725     0.26000
C1976       C  0.19566562  0.24975175  0.95354808    -0.11700
C1977       C  0.21315324  0.24796190  0.96277146    -0.25700
C1978       C  0.22122142  0.22995556  0.96471444     0.36800
C1979       C  0.18397210  0.19872704  0.94186462     0.06400
F1980       F  0.16980665  0.23619458  0.93688610    -0.19500
H1981       H  0.18929579  0.26351237  0.95176482     0.16200
F1982       F  0.23787368  0.22765749  0.97400046    -0.23200
H1983       H  0.21792432  0.20024781  0.96005360     0.18000
C1984       C  0.19311894  0.18523291  0.93058628     0.26000
C1985       C  0.18296072  0.17007098  0.92293574    -0.11700
C1986       C  0.16335072  0.16799851  0.92627191    -0.25700
C1987       C  0.15462383  0.18093369  0.93870208     0.36900
C1988       C  0.16479659  0.19609550  0.94626233    -0.27400
F1989       F  0.21169352  0.18722921  0.92607487    -0.19500
H1990       H  0.19066853  0.16061045  0.91389817     0.16200
F1991       F  0.13588552  0.17952027  0.94273293    -0.23200
H1992       H  0.15755306  0.20604153  0.95533660     0.18000
C1993       C  0.31355643  0.08298505  0.69395119    -0.27200
C1994       C  0.30905370  0.06374312  0.69310869     0.06400
C1995       C  0.32012765  0.05187248  0.68172461     0.26000
C1996       C  0.33485944  0.05922355  0.67077947    -0.11700
C1997       C  0.33895922  0.07870740  0.67077989    -0.25700
C1998       C  0.32820230  0.09043704  0.68287193     0.36800
C1999       C  0.29186854  0.05631207  0.70268217     0.06400
F2000       F  0.31637410  0.03310739  0.68079764    -0.19500
H2001       H  0.34221302  0.04945686  0.66176487     0.16200
F2002       F  0.33121438  0.10934688  0.68329086    -0.23200
H2003       H  0.30510587  0.09243749  0.70249412     0.18000
C2004       C  0.28863637  0.05910502  0.72209008     0.26000
C2005       C  0.27246080  0.05146259  0.73072954    -0.11700
C2006       C  0.25912809  0.04104754  0.72015334    -0.25700
C2007       C  0.26228919  0.03871288  0.70060007     0.36900
C2008       C  0.27842693  0.04626481  0.69208379    -0.27400
F2009       F  0.30137257  0.06871715  0.73278830    -0.19500
H2010       H  0.27050001  0.05353299  0.74576089     0.16200
F2011       F  0.24997763  0.02890007  0.68959284    -0.23200
H2012       H  0.28044354  0.04424680  0.67704415     0.18000
C2013       C  0.15666940  0.08395668  0.86397673    -0.27200
C2014       C  0.16956997  0.08985492  0.85000349     0.06400
C2015       C  0.17526393  0.10888156  0.84966857     0.26000
C2016       C  0.16830274  0.12158017  0.86310152    -0.11700
C2017       C  0.15530230  0.11569336  0.87692531    -0.25700
C2018       C  0.14953864  0.09673548  0.87728013     0.36800
C2019       C  0.17585791  0.07641805  0.83510134     0.06400
F2020       F  0.18692436  0.11540635  0.83590091    -0.19500
H2021       H  0.17281177  0.13617909  0.86249947     0.16200
F2022       F  0.13746841  0.09044143  0.89080395    -0.23200
H2023       H  0.15210264  0.06937781  0.86457906     0.18000
C2024       C  0.19503170  0.07455756  0.82992742     0.26000
C2025       C  0.20029762  0.06231562  0.81524447    -0.11700
C2026       C  0.18659979  0.05162489  0.80549034    -0.25700
C2027       C  0.16747476  0.05323603  0.81110133     0.36900
C2028       C  0.16228449  0.06547234  0.82564646    -0.27400
F2029       F  0.20871893  0.08427067  0.83928117    -0.19500
H2030       H  0.21511787  0.06123422  0.81151065     0.16200
F2031       F  0.15360320  0.04299772  0.80261630    -0.23200
H2032       H  0.14745173  0.06662313  0.82933810     0.18000
C2033       C  0.13423884  0.89997458  0.82218080    -0.27200
C2034       C  0.13097472  0.91926200  0.82534775     0.06400
C2035       C  0.11763786  0.92460581  0.83909813     0.26000
C2036       C  0.10755636  0.91087250  0.84911886    -0.11700
C2037       C  0.11072151  0.89166366  0.84578011    -0.25700
C2038       C  0.12430930  0.88630495  0.83234033     0.36800
C2039       C  0.14126124  0.93354329  0.81393104     0.06400
F2040       F  0.11434256  0.94307663  0.84285161    -0.19500
H2041       H  0.09677960  0.91534041  0.85890385     0.16200
F2042       F  0.12778203  0.86780164  0.82886759    -0.23200
H2043       H  0.14422452  0.89545138  0.81150440     0.18000
C2044       C  0.16087954  0.93202384  0.81114676     0.26000
C2045       C  0.17031858  0.94471034  0.79941123    -0.11700
C2046       C  0.16053813  0.95936272  0.79024205    -0.25700
C2047       C  0.14095998  0.96123002  0.79343997     0.36900
C2048       C  0.13144381  0.94834573  0.80509039    -0.27400
F2049       F  0.17102037  0.91835828  0.81993095    -0.19500
H2050       H  0.18543572  0.94301436  0.79756015     0.16200
F2051       F  0.13090283  0.97515751  0.78501428    -0.23200
H2052       H  0.11627962  0.94968091  0.80684031     0.18000
C2053       C  0.78015825  0.29910195  0.95241882    -0.27200
C2054       C  0.79972573  0.29902819  0.94901616     0.06400
C2055       C  0.81009698  0.28254666  0.95272594     0.26000
C2056       C  0.80115103  0.26672938  0.96038983    -0.11700
C2057       C  0.78165619  0.26691004  0.96431392    -0.25700
C2058       C  0.77114412  0.28321322  0.95997424     0.36800
C2059       C  0.80942369  0.31629602  0.94223530     0.06400
F2060       F  0.82889073  0.28170081  0.94882676    -0.19500
H2061       H  0.80954085  0.25430974  0.96331427     0.16200
F2062       F  0.75233375  0.28414243  0.96374716    -0.23200
H2063       H  0.77193893  0.31168696  0.94972969     0.18000
C2064       C  0.80332530  0.32567420  0.92590273     0.26000
C2065       C  0.81340542  0.34124097  0.91907539    -0.11700
C2066       C  0.82966876  0.34809753  0.92852279    -0.25700
C2067       C  0.83565525  0.33844762  0.94493470     0.36900
C2068       C  0.82544445  0.32303130  0.95180298    -0.27400
F2069       F  0.78836746  0.31902995  0.91581921    -0.19500
H2070       H  0.80895685  0.34704547  0.90570391     0.16200
F2071       F  0.85207253  0.34303299  0.95378275    -0.23200
H2072       H  0.83043676  0.31593005  0.96439161     0.18000
C2073       C  0.81528298  0.19392677  0.08223911    -0.27200
C2074       C  0.83386235  0.19125514  0.07577444     0.06400
C2075       C  0.83817729  0.19569026  0.05690219     0.26000
C2076       C  0.82406536  0.20225637  0.04468263    -0.11700
C2077       C  0.80528308  0.20449752  0.05093780    -0.25700
C2078       C  0.80110663  0.20040706  0.07002099     0.36800
C2079       C  0.84854073  0.18331900  0.08854514     0.06400
F2080       F  0.85609359  0.19371119  0.05027849    -0.19500
H2081       H  0.82782976  0.20525249  0.03016178     0.16200
F2082       F  0.78323106  0.20204879  0.07682917    -0.23200
H2083       H  0.81161110  0.19046397  0.09668398     0.18000
C2084       C  0.85244262  0.19157265  0.10618499     0.26000
C2085       C  0.86666723  0.18419138  0.11779287    -0.11700
C2086       C  0.87727072  0.16834685  0.11216612    -0.25700
C2087       C  0.87287435  0.15977662  0.09471222     0.36900
C2088       C  0.85876872  0.16728497  0.08305998    -0.27400
F2089       F  0.84285323  0.20708889  0.11198734    -0.19500
H2090       H  0.86931319  0.19090775  0.13128218     0.16200
F2091       F  0.88245816  0.14448086  0.08847307    -0.23200
H2092       H  0.85579562  0.16051994  0.06964857     0.18000
C2093       C  0.82060640  0.14197831  0.90027854    -0.27200
C2094       C  0.82708467  0.13885954  0.91871277     0.06400
C2095       C  0.84348113  0.12805595  0.92160733     0.26000
C2096       C  0.85276067  0.11983374  0.90616940    -0.11700
C2097       C  0.84576874  0.12235220  0.88776065    -0.25700
C2098       C  0.82990515  0.13393652  0.88490636     0.36800
C2099       C  0.81635197  0.14691659  0.93465344     0.06400
F2100       F  0.84998222  0.12481763  0.93935544    -0.19500
H2101       H  0.86488081  0.11084888  0.90866055     0.16200
F2102       F  0.82331572  0.13737999  0.86722805    -0.23200
H2103       H  0.80820577  0.15059268  0.89782519     0.18000
C2104       C  0.82411917  0.16142262  0.94567805     0.26000
C2105       C  0.81294105  0.17064777  0.95906972    -0.11700
C2106       C  0.79385362  0.16549547  0.96179155    -0.25700
C2107       C  0.78636779  0.15036699  0.95124138     0.36900
C2108       C  0.79753690  0.14129040  0.93770314    -0.27400
F2109       F  0.84216773  0.16735545  0.94275331    -0.19500
H2110       H  0.81912678  0.18220310  0.96698588     0.16200
F2111       F  0.76802479  0.14498899  0.95322253    -0.23200
H2112       H  0.79135502  0.13015454  0.92919414     0.18000
C2113       C  0.08842483  0.87386178  0.18441932    -0.27200
C2114       C  0.08811798  0.85617478  0.17556151     0.06400
C2115       C  0.09897898  0.85339863  0.15913441     0.26000
C2116       C  0.10977902  0.86824264  0.15165053    -0.11700
C2117       C  0.11012276  0.88592996  0.16059415    -0.25700
C2118       C  0.09934652  0.88857974  0.17711813     0.36800
C2119       C  0.07526435  0.84130805  0.18280508     0.06400
F2120       F  0.09868956  0.83653926  0.15004277    -0.19500
H2121       H  0.11806553  0.86585950  0.13900330     0.16200
F2122       F  0.09889960  0.90557795  0.18593437    -0.23200
H2123       H  0.08002222  0.87630884  0.19698188     0.18000
C2124       C  0.08201620  0.82352646  0.18831347     0.26000
C2125       C  0.06938176  0.80966961  0.19473126    -0.11700
C2126       C  0.04979593  0.81327427  0.19573198    -0.25700
C2127       C  0.04320924  0.83129374  0.19050532     0.36900
C2128       C  0.05585453  0.84509235  0.18422347    -0.27400
F2129       F  0.10080512  0.81962705  0.18765864    -0.19500
H2130       H  0.07493592  0.79601167  0.19867114     0.16200
F2131       F  0.02448961  0.83552912  0.19086103    -0.23200
H2132       H  0.05040285  0.85872337  0.18002242     0.18000
C2133       C  0.93418066  0.67766983  0.19126566    -0.27200
C2134       C  0.92736267  0.67708080  0.17262779     0.06400
C2135       C  0.93305082  0.69119859  0.15990724     0.26000
C2136       C  0.94546885  0.70547716  0.16575299    -0.11700
C2137       C  0.95242513  0.70606536  0.18441493    -0.25700
C2138       C  0.94662798  0.69192744  0.19713239     0.36800
C2139       C  0.91419349  0.66179699  0.16674852     0.06400
F2140       F  0.92625329  0.69145216  0.14196243    -0.19500
H2141       H  0.94952923  0.71620013  0.15564110     0.16200
F2142       F  0.95332588  0.69154542  0.21509748    -0.23200
H2143       H  0.93003880  0.66685851  0.20125377     0.18000
C2144       C  0.91827404  0.65009892  0.15122797     0.26000
C2145       C  0.90598635  0.63534185  0.14633737    -0.11700
C2146       C  0.88933516  0.63198794  0.15671610    -0.25700
C2147       C  0.88512575  0.64400204  0.17204271     0.36900
C2148       C  0.89753543  0.65858803  0.17704706    -0.27400
F2149       F  0.93443527  0.65255591  0.14115019    -0.19500
H2150       H  0.90976097  0.62632574  0.13460179     0.16200
F2151       F  0.86875604  0.64211520  0.18188676    -0.23200
H2152       H  0.89401095  0.66759686  0.18889762     0.18000
C2153       C  0.94347077  0.82983902  0.15248714    -0.27200
C2154       C  0.93255736  0.82169644  0.13804352     0.06400
C2155       C  0.93671695  0.80309725  0.13229803     0.26000
C2156       C  0.95097066  0.79275890  0.14137031    -0.11700
C2157       C  0.96121332  0.80062289  0.15647293    -0.25700
C2158       C  0.95752034  0.81948352  0.16168416     0.36800
C2159       C  0.91667893  0.83251067  0.12939731     0.06400
F2160       F  0.92637802  0.79452195  0.11857648    -0.19500
H2161       H  0.95338653  0.77828748  0.13712997     0.16200
F2162       F  0.96731940  0.82795507  0.17586786    -0.23200
H2163       H  0.94099906  0.84427041  0.15682921     0.18000
C2164       C  0.90365928  0.84256532  0.14070552     0.26000
C2165       C  0.88842140  0.85209223  0.13240778    -0.11700
C2166       C  0.88572263  0.85146546  0.11283243    -0.25700
C2167       C  0.89881398  0.84179899  0.10149470     0.36900
C2168       C  0.91422655  0.83259601  0.10969445    -0.27400
F2169       F  0.90511931  0.84247900  0.15982610    -0.19500
H2170       H  0.87830634  0.85931852  0.14131856     0.16200
F2171       F  0.89661354  0.84123474  0.08244405    -0.23200
H2172       H  0.92421433  0.82542273  0.10060566     0.18000
C2173       C  0.05678704  0.70108586  0.13413056    -0.27200
C2174       C  0.07234120  0.69390688  0.14420772     0.06400
C2175       C  0.07458468  0.69892405  0.16326135     0.26000
C2176       C  0.06187579  0.71123304  0.17188001    -0.11700
C2177       C  0.04651111  0.71892462  0.16180452    -0.25700
C2178       C  0.04395560  0.71349448  0.14279783     0.36800
C2179       C  0.08712285  0.68256833  0.13456930     0.06400
F2180       F  0.08915795  0.69191894  0.17359165    -0.19500
H2181       H  0.06421506  0.71478353  0.18658277     0.16200
F2182       F  0.02935531  0.72038970  0.13246708    -0.23200
H2183       H  0.05490671  0.69752839  0.11936193     0.18000
C2184       C  0.08270009  0.66614017  0.12426528     0.26000
C2185       C  0.09700086  0.65624778  0.11471365    -0.11700
C2186       C  0.11581771  0.66270796  0.11520007    -0.25700
C2187       C  0.12026453  0.67868585  0.12616431     0.36900
C2188       C  0.10605620  0.68850628  0.13560804    -0.27400
F2189       F  0.06462017  0.65966969  0.12349000    -0.19500
H2190       H  0.09327313  0.64394404  0.10641516     0.16200
F2191       F  0.13840104  0.68487896  0.12774250    -0.23200
H2192       H  0.10982524  0.70105999  0.14350874     0.18000
C2193       C  0.69616709  0.13842400  0.05380023    -0.27200
C2194       C  0.69018195  0.14679165  0.07080526     0.06400
C2195       C  0.69565335  0.16546957  0.07470037     0.26000
C2196       C  0.70719899  0.17530129  0.06219868    -0.11700
C2197       C  0.71345773  0.16699912  0.04527368    -0.25700
C2198       C  0.70760754  0.14843953  0.04104701     0.36800
C2199       C  0.67887134  0.13607664  0.08489743     0.06400
F2200       F  0.68961433  0.17442974  0.09054410    -0.19500
H2201       H  0.71114606  0.18961182  0.06586290     0.16200
F2202       F  0.71292067  0.13992598  0.02471549    -0.23200
H2203       H  0.69226589  0.12401034  0.05052881     0.18000
C2204       C  0.66274165  0.12550391  0.07974053     0.26000
C2205       C  0.65195129  0.11630111  0.09361731    -0.11700
C2206       C  0.65716557  0.11743896  0.11272567    -0.25700
C2207       C  0.67318015  0.12810949  0.11781529     0.36900
C2208       C  0.68400689  0.13702371  0.10403932    -0.27400
F2209       F  0.65722026  0.12434698  0.06140859    -0.19500
H2210       H  0.63973895  0.10802456  0.08942362     0.16200
F2211       F  0.67824605  0.13018776  0.13621217    -0.23200
H2212       H  0.69649472  0.14477808  0.10841061     0.18000
C2213       C  0.57847061  0.03266842  0.06220194    -0.27200
C2214       C  0.57139372  0.04372380  0.07714988     0.06400
C2215       C  0.55165184  0.04538754  0.07930237     0.26000
C2216       C  0.53940132  0.03724619  0.06612510    -0.11700
C2217       C  0.54650314  0.02678119  0.05092672    -0.25700
C2218       C  0.56610618  0.02408373  0.04926735     0.36800
C2219       C  0.58444756  0.05421312  0.08993839     0.06400
F2220       F  0.54417161  0.05497434  0.09411906    -0.19500
H2221       H  0.52428350  0.03928154  0.06766202     0.16200
F2222       F  0.57330156  0.01413504  0.03454565    -0.23200
H2223       H  0.59358091  0.03125203  0.06011178     0.18000
C2224       C  0.60030434  0.04548916  0.09806114     0.26000
C2225       C  0.61203185  0.05553942  0.11044582    -0.11700
C2226       C  0.60811965  0.07443779  0.11536449    -0.25700
C2227       C  0.59249116  0.08324207  0.10678098     0.36900
C2228       C  0.58094461  0.07325716  0.09417502    -0.27400
F2229       F  0.60418373  0.02708301  0.09452491    -0.19500
H2230       H  0.62423616  0.04836640  0.11619849     0.16200
F2231       F  0.58780423  0.10126915  0.11089080    -0.23200
H2232       H  0.56907980  0.08046921  0.08775980     0.18000
C2233       C  0.63724433  0.07387992  0.79215792    -0.27200
C2234       C  0.63902656  0.07400950  0.81195169     0.06400
C2235       C  0.65005022  0.06003077  0.82070679     0.26000
C2236       C  0.65962923  0.04671149  0.80977922    -0.11700
C2237       C  0.65804052  0.04676981  0.78999404    -0.25700
C2238       C  0.64656014  0.06035297  0.78125172     0.36800
C2239       C  0.62927210  0.08875774  0.82317198     0.06400
F2240       F  0.65132083  0.05901125  0.83981210    -0.19500
H2241       H  0.66830157  0.03627807  0.81681115     0.16200
F2242       F  0.64508080  0.06115882  0.76214444    -0.23200
H2243       H  0.62893177  0.08456080  0.78507297     0.18000
C2244       C  0.63881757  0.09906278  0.83733265     0.26000
C2245       C  0.62950898  0.11345190  0.84713004    -0.11700
C2246       C  0.61078058  0.11811546  0.84264937    -0.25700
C2247       C  0.60117047  0.10770647  0.82867153     0.36900
C2248       C  0.61033611  0.09314383  0.81912572    -0.27400
F2249       F  0.65738898  0.09592146  0.84105153    -0.19500
H2250       H  0.63718685  0.12148696  0.85768293     0.16200
F2251       F  0.58285692  0.11150743  0.82431750    -0.23200
H2252       H  0.60262941  0.08531044  0.80844447     0.18000
C2253       C  0.67194557  0.20059797  0.93061000    -0.27200
C2254       C  0.66992366  0.18138093  0.92612075     0.06400
C2255       C  0.68253634  0.16837402  0.93409887     0.26000
C2256       C  0.69666003  0.17444310  0.94653506    -0.11700
C2257       C  0.69865140  0.19364079  0.95132842    -0.25700
C2258       C  0.68609371  0.20672519  0.94313815     0.36800
C2259       C  0.65477802  0.17499876  0.91300993     0.06400
F2260       F  0.68147645  0.14980203  0.92954520    -0.19500
H2261       H  0.70613015  0.16397936  0.95237929     0.16200
F2262       F  0.68721261  0.22535435  0.94740898    -0.23200
H2263       H  0.66234443  0.21085145  0.92459409     0.18000
C2264       C  0.64177396  0.16089774  0.91834864     0.26000
C2265       C  0.62739935  0.15523592  0.90593248    -0.11700
C2266       C  0.62567581  0.16354625  0.88802655    -0.25700
C2267       C  0.63899877  0.17730049  0.88251109     0.36900
C2268       C  0.65328711  0.18303815  0.89496882    -0.27400
F2269       F  0.64256046  0.15306338  0.93581749    -0.19500
H2270       H  0.61724571  0.14475026  0.91056913     0.16200
F2271       F  0.63845019  0.18495277  0.86495000    -0.23200
H2272       H  0.66334932  0.19367184  0.89046253     0.18000
C2273       C  0.53873564  0.09116872  0.94853726    -0.27200
C2274       C  0.54310503  0.08650650  0.92972768     0.06400
C2275       C  0.53840567  0.06832943  0.92313418     0.26000
C2276       C  0.53008513  0.05508794  0.93521134    -0.11700
C2277       C  0.52600859  0.05959097  0.95413473    -0.25700
C2278       C  0.53018168  0.07798381  0.96058965     0.36800
C2279       C  0.55297920  0.10033482  0.91720323     0.06400
F2280       F  0.54162716  0.06336070  0.90489309    -0.19500
H2281       H  0.52690659  0.04119420  0.92967434     0.16200
F2282       F  0.52630557  0.08324924  0.97861568    -0.23200
H2283       H  0.54233546  0.10494911  0.95409603     0.18000
C2284       C  0.54733922  0.11935748  0.91621765     0.26000
C2285       C  0.55663102  0.13194488  0.90405582    -0.11700
C2286       C  0.57161454  0.12587058  0.89247595    -0.25700
C2287       C  0.57719825  0.10684061  0.89347844     0.36900
C2288       C  0.56817751  0.09440023  0.90588045    -0.27400
F2289       F  0.53246183  0.12569280  0.92652897    -0.19500
H2290       H  0.55199982  0.14647664  0.90364325     0.16200
F2291       F  0.59074047  0.09986026  0.88185320    -0.23200
H2292       H  0.57304209  0.07994971  0.90648539     0.18000
C2293       C  0.54760824  0.22681860  0.79282103    -0.27200
C2294       C  0.54884238  0.20706851  0.79370836     0.06400
C2295       C  0.54324421  0.19638343  0.77788249     0.26000
C2296       C  0.53623135  0.20527139  0.76176108    -0.11700
C2297       C  0.53481165  0.22501521  0.76087398    -0.25700
C2298       C  0.54076614  0.23575973  0.77657534     0.36800
C2299       C  0.55621810  0.19760730  0.81093075     0.06400
F2300       F  0.54491266  0.17731858  0.77779838    -0.19500
H2301       H  0.53193594  0.19660078  0.74989463     0.16200
F2302       F  0.53955443  0.25485552  0.77649981    -0.23200
H2303       H  0.55169058  0.23535498  0.80485526     0.18000
C2304       C  0.57324667  0.20348160  0.81935762     0.26000
C2305       C  0.58110723  0.19318474  0.83424120    -0.11700
C2306       C  0.57217232  0.17678768  0.84127816    -0.25700
C2307       C  0.55488840  0.17119749  0.83287554     0.36900
C2308       C  0.54689548  0.18172216  0.81824481    -0.27400
F2309       F  0.58309957  0.21834248  0.81228512    -0.19500
H2310       H  0.59490967  0.19752298  0.83915998     0.16200
F2311       F  0.54625817  0.15482118  0.83782727    -0.23200
H2312       H  0.53368382  0.17696106  0.81207849     0.18000
C2313       C  0.39015123  0.09266344  0.04675730    -0.27200
C2314       C  0.40815727  0.09050310  0.05494001     0.06400
C2315       C  0.41257355  0.10098503  0.07125693     0.26000
C2316       C  0.39927552  0.11335382  0.07906515    -0.11700
C2317       C  0.38134734  0.11573831  0.07073826    -0.25700
C2318       C  0.37687039  0.10510064  0.05452581     0.36800
C2319       C  0.42224950  0.07751942  0.04622710     0.06400
F2320       F  0.42964319  0.09906642  0.07985358    -0.19500
H2321       H  0.40319907  0.12128192  0.09153448     0.16200
F2322       F  0.35951887  0.10634103  0.04640742    -0.23200
H2323       H  0.38641310  0.08482188  0.03415134     0.18000
C2324       C  0.41729372  0.05890168  0.04138856     0.26000
C2325       C  0.43041324  0.04704386  0.03252899    -0.11700
C2326       C  0.44884753  0.05337605  0.02835418    -0.25700
C2327       C  0.45388226  0.07197273  0.03352367     0.36900
C2328       C  0.44069396  0.08383936  0.04228627    -0.27400
F2329       F  0.39985251  0.05201779  0.04558782    -0.19500
H2330       H  0.42611719  0.03278570  0.02905886     0.16200
F2331       F  0.47147980  0.07885677  0.03001657    -0.23200
H2332       H  0.44483294  0.09815226  0.04573409     0.18000
C2333       C  0.30763494  0.22445381  0.02815541    -0.27200
C2334       C  0.30041231  0.21532732  0.04424734     0.06400
C2335       C  0.28336877  0.22202217  0.05214259     0.26000
C2336       C  0.27406360  0.23757142  0.04426883    -0.11700
C2337       C  0.28126171  0.24663060  0.02814331    -0.25700
C2338       C  0.29814690  0.23977125  0.02006766     0.36800
C2339       C  0.31105390  0.19941688  0.05310750     0.06400
F2340       F  0.27543263  0.21331517  0.06726871    -0.19500
H2341       H  0.26100059  0.24234862  0.05066154     0.16200
F2342       F  0.30583453  0.24814392  0.00462312    -0.23200
H2343       H  0.32090506  0.21996994  0.02199054     0.18000
C2344       C  0.31932023  0.18500246  0.04215755     0.26000
C2345       C  0.32998748  0.17068670  0.05072627    -0.11700
C2346       C  0.33260088  0.17026637  0.07047216    -0.25700
C2347       C  0.32364934  0.18437749  0.08137489     0.36900
C2348       C  0.31337117  0.19881630  0.07278631    -0.27400
F2349       F  0.31688494  0.18454013  0.02314055    -0.19500
H2350       H  0.33601008  0.16005357  0.04166885     0.16200
F2351       F  0.32531234  0.18454992  0.10049280    -0.23200
H2352       H  0.30751884  0.20981216  0.08163176     0.18000
C2353       C  0.44311258  0.93615573  0.05442931    -0.27200
C2354       C  0.45447144  0.92755314  0.06819559     0.06400
C2355       C  0.47387233  0.93193638  0.06886218     0.26000
C2356       C  0.48159988  0.94505896  0.05625490    -0.11700
C2357       C  0.47016084  0.95407676  0.04272718    -0.25700
C2358       C  0.45078951  0.94924578  0.04180277     0.36800
C2359       C  0.44580757  0.91451181  0.08211908     0.06400
F2360       F  0.48521484  0.92408112  0.08216708    -0.19500
H2361       H  0.49651920  0.94843243  0.05736443     0.16200
F2362       F  0.43917463  0.95710482  0.02873295    -0.23200
H2363       H  0.42818233  0.93274675  0.05349925     0.18000
C2364       C  0.43008230  0.92021674  0.09281927     0.26000
C2365       C  0.42179462  0.90790475  0.10580169    -0.11700
C2366       C  0.42885331  0.88957883  0.10832209    -0.25700
C2367       C  0.44466387  0.88385514  0.09763176     0.36900
C2368       C  0.45306937  0.89628084  0.08471454    -0.27400
F2369       F  0.42297770  0.93788958  0.09102805    -0.19500
H2370       H  0.40997863  0.91290544  0.11413190     0.16200
F2371       F  0.45163865  0.86611532  0.09915649    -0.23200
H2372       H  0.46505392  0.89154775  0.07645177     0.18000
C2373       C  0.45113572  0.81993032  0.22706935    -0.27200
C2374       C  0.45131599  0.81144741  0.20912548     0.06400
C2375       C  0.45861791  0.79311961  0.20716428     0.26000
C2376       C  0.46543323  0.78344000  0.22292478    -0.11700
C2377       C  0.46546291  0.79200968  0.24078647    -0.25700
C2378       C  0.45820951  0.81033913  0.24279765     0.36800
C2379       C  0.44352539  0.82165654  0.19263906     0.06400
F2380       F  0.45970743  0.78480977  0.18991818    -0.19500
H2381       H  0.47127432  0.76944977  0.22107499     0.16200
F2382       F  0.45763884  0.81880163  0.26000615    -0.23200
H2383       H  0.44535570  0.83394394  0.22890690     0.18000
C2384       C  0.42947033  0.81335791  0.18135215     0.26000
C2385       C  0.42133467  0.82341076  0.16650573    -0.11700
C2386       C  0.42696283  0.84210679  0.16246328    -0.25700
C2387       C  0.44138201  0.85021122  0.17372818     0.36900
C2388       C  0.44949555  0.84008855  0.18861336    -0.27400
F2389       F  0.42275798  0.79585362  0.18535746    -0.19500
H2390       H  0.40998632  0.81648810  0.15908013     0.16200
F2391       F  0.44709013  0.86827709  0.17086733    -0.23200
H2392       H  0.46029928  0.84676143  0.19721045     0.18000
C2393       C  0.68680557  0.92003788  0.86665450    -0.27200
C2394       C  0.67688352  0.92203098  0.84959360     0.06400
C2395       C  0.65931555  0.91286367  0.84751817     0.26000
C2396       C  0.65214624  0.90149886  0.86202578    -0.11700
C2397       C  0.66226350  0.89910217  0.87894091    -0.25700
C2398       C  0.67957865  0.90883366  0.88124092     0.36800
C2399       C  0.68475245  0.93384706  0.83412432     0.06400
F2400       F  0.64894307  0.91510836  0.83153672    -0.19500
H2401       H  0.63884304  0.89421978  0.85978984     0.16200
F2402       F  0.68942393  0.90786133  0.89768098    -0.23200
H2403       H  0.70028744  0.92707882  0.86864414     0.18000
C2404       C  0.69052926  0.95251085  0.83756515     0.26000
C2405       C  0.69680746  0.96388660  0.82271017    -0.11700
C2406       C  0.69754067  0.95696690  0.80406338    -0.25700
C2407       C  0.69247349  0.93799659  0.80076606     0.36900
C2408       C  0.68612417  0.92663224  0.81567363    -0.27400
F2409       F  0.68925972  0.96007160  0.85514500    -0.19500
H2410       H  0.70060962  0.97836930  0.82580020     0.16200
F2411       F  0.69299033  0.93054432  0.78310436    -0.23200
H2412       H  0.68203917  0.91218490  0.81276470     0.18000
C2413       C  0.59820717  0.92665414  0.92854176    -0.27200
C2414       C  0.59067381  0.92217768  0.94639313     0.06400
C2415       C  0.59689559  0.90556581  0.95532798     0.26000
C2416       C  0.61009827  0.89381544  0.94648809    -0.11700
C2417       C  0.61789255  0.89850561  0.92877947    -0.25700
C2418       C  0.61191116  0.91527060  0.92001798     0.36800
C2419       C  0.57653434  0.93496111  0.95548810     0.06400
F2420       F  0.59063586  0.90083170  0.97282346    -0.19500
H2421       H  0.61413887  0.88093999  0.95359786     0.16200
F2422       F  0.61971715  0.92118634  0.90355174    -0.23200
H2423       H  0.59352750  0.93910761  0.92107425     0.18000
C2424       C  0.57855994  0.95473623  0.95440539     0.26000
C2425       C  0.56475923  0.96662658  0.96200370    -0.11700
C2426       C  0.54906931  0.95918191  0.97153172    -0.25700
C2427       C  0.54723694  0.93953755  0.97329085     0.36900
C2428       C  0.56066024  0.92756009  0.96503395    -0.27400
F2429       F  0.59411557  0.96267093  0.94642210    -0.19500
H2430       H  0.56653987  0.98175727  0.96081098     0.16200
F2431       F  0.53213768  0.93193800  0.98240973    -0.23200
H2432       H  0.55841196  0.91248153  0.96584267     0.18000
C2433       C  0.44947268  0.96787298  0.91385885    -0.27200
C2434       C  0.43021361  0.96475418  0.91765750     0.06400
C2435       C  0.42264652  0.97131359  0.93481624     0.26000
C2436       C  0.43427073  0.98022298  0.94810890    -0.11700
C2437       C  0.45371097  0.98285410  0.94464236    -0.25700
C2438       C  0.46114047  0.97684166  0.92713599     0.36800
C2439       C  0.41822594  0.95407627  0.90407566     0.06400
F2440       F  0.40396060  0.96913281  0.93874377    -0.19500
H2441       H  0.42802722  0.98481160  0.96130046     0.16200
F2442       F  0.47977316  0.97903201  0.92299459    -0.23200
H2443       H  0.45563812  0.96284567  0.90078929     0.18000
C2444       C  0.41753224  0.95896816  0.88482939     0.26000
C2445       C  0.40571819  0.94903070  0.87239893    -0.11700
C2446       C  0.39448366  0.93397510  0.87886860    -0.25700
C2447       C  0.39544290  0.92891109  0.89807697     0.36900
C2448       C  0.40722696  0.93884559  0.91046493    -0.27400
F2449       F  0.42778349  0.97373905  0.87816133    -0.19500
H2450       H  0.40525148  0.95319360  0.85768940     0.16200
F2451       F  0.38437054  0.91496724  0.90518463    -0.23200
H2452       H  0.40766607  0.93469338  0.92518160     0.18000
C2453       C  0.28425433  0.97172661  0.80962117    -0.27200
C2454       C  0.29311100  0.95623242  0.80096902     0.06400
C2455       C  0.28533856  0.94895426  0.78413617     0.26000
C2456       C  0.26921915  0.95716015  0.77615747    -0.11700
C2457       C  0.26064151  0.97292955  0.78459247    -0.25700
C2458       C  0.26832369  0.98011194  0.80149607     0.36800
C2459       C  0.31007421  0.94755460  0.80988726     0.06400
F2460       F  0.29358457  0.93423112  0.77508440    -0.19500
H2461       H  0.26367078  0.95138250  0.76310248     0.16200
F2462       F  0.26023625  0.99498564  0.81044109    -0.23200
H2463       H  0.28955639  0.97726497  0.82287604     0.18000
C2464       C  0.32480415  0.95879654  0.81721928     0.26000
C2465       C  0.33981256  0.95061668  0.82714666    -0.11700
C2466       C  0.34054943  0.93097643  0.83000877    -0.25700
C2467       C  0.32637568  0.91969679  0.82149897     0.36900
C2468       C  0.31127765  0.92791509  0.81182672    -0.27400
F2469       F  0.32466325  0.97779197  0.81491288    -0.19500
H2470       H  0.35042183  0.95998181  0.83280694     0.16200
F2471       F  0.32657076  0.90064487  0.82342128    -0.23200
H2472       H  0.30012049  0.91887318  0.80647394     0.18000
C2473       C  0.22029628  0.71817583  0.05236327    -0.27200
C2474       C  0.20194680  0.71293209  0.04676616     0.06400
C2475       C  0.19196754  0.72478326  0.03435291     0.26000
C2476       C  0.20027973  0.74140655  0.02762035    -0.11700
C2477       C  0.21871231  0.74666635  0.03309812    -0.25700
C2478       C  0.22865758  0.73478229  0.04560925     0.36800
C2479       C  0.19278050  0.69590079  0.05497491     0.06400
F2480       F  0.17390226  0.72065666  0.02923154    -0.19500
H2481       H  0.19221318  0.75017222  0.01804951     0.16200
F2482       F  0.24639670  0.73921559  0.05152839    -0.23200
H2483       H  0.22819042  0.70935917  0.06203722     0.18000
C2484       C  0.18346188  0.68254149  0.04355573     0.26000
C2485       C  0.17283679  0.66796749  0.05174430    -0.11700
C2486       C  0.17130354  0.66635486  0.07155792    -0.25700
C2487       C  0.18204925  0.67890572  0.08282768     0.36900
C2488       C  0.19251421  0.69348465  0.07461937    -0.27400
F2489       F  0.18443534  0.68370464  0.02443806    -0.19500
H2490       H  0.16552627  0.65849886  0.04231287     0.16200
F2491       F  0.18151064  0.67777841  0.10197169    -0.23200
H2492       H  0.19974474  0.70345513  0.08373116     0.18000
C2493       C  0.35033753  0.82855287  0.10329118    -0.27200
C2494       C  0.34841662  0.83692282  0.08546902     0.06400
C2495       C  0.36072489  0.85171238  0.08041035     0.26000
C2496       C  0.37466111  0.85798003  0.09303112    -0.11700
C2497       C  0.37651654  0.84972850  0.11096540    -0.25700
C2498       C  0.36410925  0.83492712  0.11599865     0.36800
C2499       C  0.33280064  0.83099298  0.07274532     0.06400
F2500       F  0.35939654  0.85995016  0.06316137    -0.19500
H2501       H  0.38415522  0.86915757  0.08864694     0.16200
F2502       F  0.36471844  0.82706650  0.13346089    -0.23200
H2503       H  0.34074681  0.81741551  0.10759721     0.18000
C2504       C  0.33047665  0.81207077  0.06718689     0.26000
C2505       C  0.31546177  0.80684144  0.05527209    -0.11700
C2506       C  0.30246033  0.82036649  0.04876128    -0.25700
C2507       C  0.30469900  0.83925797  0.05475899     0.36900
C2508       C  0.31972267  0.84441898  0.06651359    -0.27400
F2509       F  0.34300540  0.79875705  0.07287469    -0.19500
H2510       H  0.31420720  0.79225460  0.05089943     0.16200
F2511       F  0.29233275  0.85286583  0.04942036    -0.23200
H2512       H  0.32104567  0.85898931  0.07095326     0.18000
C2513       C  0.16236799  0.82175121  0.94488567    -0.27200
C2514       C  0.16646145  0.82788457  0.92647948     0.06400
C2515       C  0.18534298  0.82721409  0.92015211     0.26000
C2516       C  0.19967152  0.82029967  0.93199359    -0.11700
C2517       C  0.19552617  0.81403087  0.95041724    -0.25700
C2518       C  0.17659789  0.81486005  0.95669993     0.36800
C2519       C  0.15078702  0.83443059  0.91402147     0.06400
F2520       F  0.18991372  0.83289143  0.90242118    -0.19500
H2521       H  0.21408040  0.82008393  0.92678541     0.16200
F2522       F  0.17170467  0.80911005  0.97432279    -0.23200
H2523       H  0.14801988  0.82240466  0.95022945     0.18000
C2524       C  0.13412303  0.82365596  0.91229199     0.26000
C2525       C  0.11914052  0.82995342  0.90109194    -0.11700
C2526       C  0.12038690  0.84704052  0.89112223    -0.25700
C2527       C  0.13712395  0.85780096  0.89268447     0.36900
C2528       C  0.15212072  0.85154851  0.90408173    -0.27400
F2529       F  0.13244936  0.80676015  0.92113654    -0.19500
H2530       H  0.10645898  0.82138238  0.90027573     0.16200
F2531       F  0.13932878  0.87399603  0.88272652    -0.23200
H2532       H  0.16476001  0.86015115  0.90521952     0.18000
C2533       C  0.32586575  0.89719755  0.91586881    -0.27200
C2534       C  0.32853967  0.87813445  0.92021212     0.06400
C2535       C  0.34222762  0.86775676  0.91016907     0.26000
C2536       C  0.35197037  0.87599010  0.89505046    -0.11700
C2537       C  0.34800894  0.89455386  0.88966062    -0.25700
C2538       C  0.33551920  0.90538504  0.90074040     0.36800
C2539       C  0.31509032  0.86848321  0.93299867     0.06400
F2540       F  0.34549748  0.84940312  0.91446342    -0.19500
H2541       H  0.36175921  0.86754257  0.88692979     0.16200
F2542       F  0.33217812  0.92375000  0.89653222    -0.23200
H2543       H  0.31545056  0.90543875  0.92345449     0.18000
C2544       C  0.31180443  0.87466019  0.95160813     0.26000
C2545       C  0.29862230  0.86519717  0.96306418    -0.11700
C2546       C  0.28842429  0.84961378  0.95601859    -0.25700
C2547       C  0.29128233  0.84409478  0.93707343     0.36900
C2548       C  0.30450559  0.85337216  0.92584726    -0.27400
F2549       F  0.32165486  0.88947392  0.95881273    -0.19500
H2550       H  0.29671520  0.86978428  0.97753528     0.16200
F2551       F  0.28126218  0.82972231  0.92922005    -0.23200
H2552       H  0.30635565  0.84883832  0.91134000     0.18000
C2553       C  0.20232198  0.87546965  0.06090773    -0.27200
C2554       C  0.18426101  0.86853228  0.06560786     0.06400
C2555       C  0.17719124  0.85271208  0.05596821     0.26000
C2556       C  0.18843395  0.84341099  0.04269516    -0.11700
C2557       C  0.20693140  0.84969884  0.03865980    -0.25700
C2558       C  0.21358166  0.86621751  0.04754426     0.36800
C2559       C  0.17356866  0.87696714  0.08152818     0.06400
F2560       F  0.15985164  0.84556811  0.06016022    -0.19500
H2561       H  0.18278229  0.83088643  0.03595254     0.16200
F2562       F  0.23121965  0.87298539  0.04402530    -0.23200
H2563       H  0.20791419  0.88783207  0.06799968     0.18000
C2564       C  0.18226791  0.87910676  0.09921927     0.26000
C2565       C  0.17252813  0.88744403  0.11414740    -0.11700
C2566       C  0.15389773  0.89409199  0.11186970    -0.25700
C2567       C  0.14472793  0.89075254  0.09444357     0.36900
C2568       C  0.15459540  0.88244509  0.07940360    -0.27400
F2569       F  0.20018730  0.87290016  0.10216806    -0.19500
H2570       H  0.17975757  0.88875776  0.12757073     0.16200
F2571       F  0.12649670  0.89585011  0.09154704    -0.23200
H2572       H  0.14750451  0.88059951  0.06595390     0.18000
C2573       C  0.18582437  0.93586825  0.18879790    -0.27200
C2574       C  0.18700546  0.95555173  0.18945535     0.06400
C2575       C  0.17358623  0.96631382  0.17960699     0.26000
C2576       C  0.15948463  0.95744369  0.16887458    -0.11700
C2577       C  0.15865232  0.93760591  0.16754247    -0.25700
C2578       C  0.17194264  0.92697262  0.17796369     0.36800
C2579       C  0.20316541  0.96454672  0.19926930     0.06400
F2580       F  0.17424512  0.98543621  0.18020926    -0.19500
H2581       H  0.14978081  0.96637752  0.16132602     0.16200
F2582       F  0.17198549  0.90784288  0.17708029    -0.23200
H2583       H  0.19618508  0.92732671  0.19611542     0.18000
C2584       C  0.20728864  0.96025554  0.21819367     0.26000
C2585       C  0.22361609  0.96748818  0.22675343    -0.11700
C2586       C  0.23623562  0.97901012  0.21656794    -0.25700
C2587       C  0.23179975  0.98357900  0.19765652     0.36900
C2588       C  0.21542447  0.97640133  0.18918795    -0.27400
F2589       F  0.19549614  0.94907167  0.22839275    -0.19500
H2590       H  0.22645530  0.96388340  0.24134278     0.16200
F2591       F  0.24325468  0.99488369  0.18720767    -0.23200
H2592       H  0.21256309  0.97970196  0.17452139     0.18000
C2593       C  0.31496420  0.09071692  0.18360741    -0.27200
C2594       C  0.31487451  0.08427695  0.16482584     0.06400
C2595       C  0.30810105  0.06603196  0.16095633     0.26000
C2596       C  0.30188174  0.05439118  0.17562195    -0.11700
C2597       C  0.30228320  0.06061031  0.19450706    -0.25700
C2598       C  0.30878059  0.07904944  0.19834473     0.36800
C2599       C  0.32232978  0.09639635  0.14941270     0.06400
F2600       F  0.30738700  0.05947288  0.14294580    -0.19500
H2601       H  0.29692448  0.04034319  0.17215204     0.16200
F2602       F  0.30986850  0.08561613  0.21633570    -0.23200
H2603       H  0.32032688  0.10465621  0.18692756     0.18000
C2604       C  0.31571559  0.11490586  0.14693302     0.26000
C2605       C  0.32298968  0.12620561  0.13243961    -0.11700
C2606       C  0.33705552  0.11932542  0.12020695    -0.25700
C2607       C  0.34357396  0.10076238  0.12261418     0.36900
C2608       C  0.33626094  0.08945379  0.13708237    -0.27400
F2609       F  0.30198377  0.12194801  0.15831768    -0.19500
H2610       H  0.31778845  0.14047557  0.13094163     0.16200
F2611       F  0.35662504  0.09333538  0.11069426    -0.23200
H2612       H  0.34159511  0.07524982  0.13875513     0.18000
C2613       C  0.33566671  0.94721605  0.32017843    -0.27200
C2614       C  0.32217537  0.93689962  0.33040663     0.06400
C2615       C  0.30288145  0.93920541  0.32582991     0.26000
C2616       C  0.29739090  0.95148894  0.31123570    -0.11700
C2617       C  0.31098175  0.96176021  0.30091386    -0.25700
C2618       C  0.33027581  0.95937702  0.30564241     0.36800
C2619       C  0.32855221  0.92399063  0.34580987     0.06400
F2620       F  0.28935068  0.92931134  0.33518135    -0.19500
H2621       H  0.28247779  0.95294991  0.30803228     0.16200
F2622       F  0.34414370  0.96886678  0.29635862    -0.23200
H2623       H  0.35056046  0.94603534  0.32360486     0.18000
C2624       C  0.34370630  0.91140107  0.34292328     0.26000
C2625       C  0.35014715  0.89987167  0.35763746    -0.11700
C2626       C  0.34151226  0.90038456  0.37545900    -0.25700
C2627       C  0.32642928  0.91301601  0.37843233     0.36900
C2628       C  0.32008493  0.92469111  0.36376478    -0.27400
F2629       F  0.35197739  0.90983789  0.32569067    -0.19500
H2630       H  0.36154677  0.89009259  0.35490531     0.16200
F2631       F  0.31808662  0.91439491  0.39564804    -0.23200
H2632       H  0.30872011  0.93452467  0.36654172     0.18000
C2633       C  0.35805389  0.91626660  0.16209725    -0.27200
C2634       C  0.36870563  0.92984950  0.17204875     0.06400
C2635       C  0.38857255  0.92839525  0.17211782     0.26000
C2636       C  0.39743415  0.91310734  0.16336878    -0.11700
C2637       C  0.38670956  0.89923171  0.15410264    -0.25700
C2638       C  0.36699611  0.90112885  0.15305989     0.36800
C2639       C  0.35902895  0.94465775  0.18335997     0.06400
F2640       F  0.39940137  0.94168193  0.18077508    -0.19500
H2641       H  0.41270673  0.91191327  0.16404620     0.16200
F2642       F  0.35636251  0.88779695  0.14423688    -0.23200
H2643       H  0.34274417  0.91695724  0.16195608     0.18000
C2644       C  0.34418978  0.95536599  0.17568574     0.26000
C2645       C  0.33445433  0.96834559  0.18694379    -0.11700
C2646       C  0.33932548  0.97103730  0.20606518    -0.25700
C2647       C  0.35444548  0.96059945  0.21361938     0.36900
C2648       C  0.36410895  0.94754023  0.20236934    -0.27400
F2649       F  0.33915612  0.95337248  0.15727563    -0.19500
H2650       H  0.32296720  0.97625261  0.18066725     0.16200
F2651       F  0.35938400  0.96235056  0.23207081    -0.23200
H2652       H  0.37525720  0.93922410  0.20871822     0.18000
C2653       C  0.36523860  0.11395566  0.31942473    -0.27200
C2654       C  0.36755579  0.09468115  0.32326436     0.06400
C2655       C  0.37987937  0.08924231  0.33788890     0.26000
C2656       C  0.39001851  0.10289717  0.34810041    -0.11700
C2657       C  0.38810303  0.12210858  0.34382312    -0.25700
C2658       C  0.37533883  0.12753565  0.32958475     0.36800
C2659       C  0.35717496  0.08053498  0.31172042     0.06400
F2660       F  0.38212594  0.07075779  0.34226429    -0.19500
H2661       H  0.39991504  0.09836950  0.35876943     0.16200
F2662       F  0.37283157  0.14602193  0.32531500    -0.23200
H2663       H  0.35587972  0.11850179  0.30820122     0.18000
C2664       C  0.33759127  0.08229575  0.30893532     0.26000
C2665       C  0.32800364  0.06983991  0.29703144    -0.11700
C2666       C  0.33762194  0.05524686  0.28756058    -0.25700
C2667       C  0.35721888  0.05322225  0.29063799     0.36900
C2668       C  0.36686264  0.06579694  0.30261231    -0.27400
F2669       F  0.32764811  0.09602879  0.31785684    -0.19500
H2670       H  0.31289619  0.07170139  0.29526175     0.16200
F2671       F  0.36715638  0.03945609  0.28179044    -0.23200
H2672       H  0.38201164  0.06431753  0.30440478     0.18000
C2673       C  0.55491685  0.78961914  0.71114484    -0.27200
C2674       C  0.54638617  0.80592910  0.70387557     0.06400
C2675       C  0.53002754  0.81299339  0.71267578     0.26000
C2676       C  0.52254758  0.80396171  0.72855601    -0.11700
C2677       C  0.53132541  0.78786498  0.73610082    -0.25700
C2678       C  0.54759079  0.78071414  0.72715158     0.36800
C2679       C  0.55510149  0.81594438  0.68768760     0.06400
F2680       F  0.52168175  0.82902273  0.70637806    -0.19500
H2681       H  0.51007602  0.80983493  0.73520326     0.16200
F2682       F  0.55630684  0.76497689  0.73365983    -0.23200
H2683       H  0.56735812  0.78377456  0.70441577     0.18000
C2684       C  0.57444431  0.82041697  0.68786748     0.26000
C2685       C  0.58237500  0.83078224  0.67315640    -0.11700
C2686       C  0.57126436  0.83752034  0.65804978    -0.25700
C2687       C  0.55197526  0.83200038  0.65739197     0.36900
C2688       C  0.54410042  0.82143277  0.67214674    -0.27400
F2689       F  0.58554251  0.81564157  0.70276577    -0.19500
H2690       H  0.59726523  0.83439558  0.67402722     0.16200
F2691       F  0.54046264  0.83637946  0.64278653    -0.23200
H2692       H  0.52926578  0.81757733  0.67147227     0.18000
C2693       C  0.43893646  0.82782717  0.83413649    -0.27200
C2694       C  0.42783854  0.83673016  0.82038171     0.06400
C2695       C  0.43002822  0.83135769  0.80133096     0.26000
C2696       C  0.44287456  0.81712813  0.79635063    -0.11700
C2697       C  0.45379774  0.80801054  0.81022939    -0.25700
C2698       C  0.45166678  0.81365415  0.82925161     0.36800
C2699       C  0.41436346  0.85173307  0.82625135     0.06400
F2700       F  0.41947129  0.83953096  0.78758247    -0.19500
H2701       H  0.44417775  0.81318699  0.78162399     0.16200
F2702       F  0.46188590  0.80558545  0.84331747    -0.23200
H2703       H  0.43789184  0.83200067  0.84882445     0.18000
C2704       C  0.40236663  0.84910429  0.84195168     0.26000
C2705       C  0.39084147  0.86378424  0.84836744    -0.11700
C2706       C  0.39069236  0.88119939  0.83906056    -0.25700
C2707       C  0.40239231  0.88377282  0.82315821     0.36900
C2708       C  0.41416983  0.86919732  0.81691281    -0.27400
F2709       F  0.40155978  0.83221995  0.85093455    -0.19500
H2710       H  0.38172923  0.86140756  0.86041000     0.16200
F2711       F  0.40292178  0.90059127  0.81403692    -0.23200
H2712       H  0.42349907  0.87173241  0.80504339     0.18000
C2713       C  0.57412049  0.81849694  0.83410987    -0.27200
C2714       C  0.57339028  0.82066579  0.85375202     0.06400
C2715       C  0.55953411  0.81080254  0.86407615     0.26000
C2716       C  0.54692605  0.79858997  0.85480459    -0.11700
C2717       C  0.54803360  0.79596456  0.83513758    -0.25700
C2718       C  0.56164949  0.80634491  0.82484988     0.36800
C2719       C  0.58794196  0.83230403  0.86332034     0.06400
F2720       F  0.55873226  0.81235615  0.88317325    -0.19500
H2721       H  0.53661408  0.79085114  0.86306584     0.16200
F2722       F  0.56295653  0.80489482  0.80576570    -0.23200
H2723       H  0.58456520  0.82614306  0.82591074     0.18000
C2724       C  0.60722382  0.82828735  0.86062556     0.26000
C2725       C  0.62100706  0.83858493  0.87027361    -0.11700
C2726       C  0.61587481  0.85314504  0.88266934    -0.25700
C2727       C  0.59666810  0.85774965  0.88480956     0.36900
C2728       C  0.58277730  0.84726815  0.87526906    -0.27400
F2729       F  0.61269840  0.81380301  0.84934029    -0.19500
H2730       H  0.63575535  0.83482301  0.86850267     0.16200
F2731       F  0.59129901  0.87157689  0.89692819    -0.23200
H2732       H  0.56798646  0.85065143  0.87737034     0.18000
C2733       C  0.39333339  0.32748360  0.64034226    -0.27200
C2734       C  0.41260926  0.32957705  0.63589985     0.06400
C2735       C  0.41799501  0.34295030  0.62220336     0.26000
C2736       C  0.40424097  0.35365755  0.61288196    -0.11700
C2737       C  0.38501339  0.35099572  0.61694482    -0.25700
C2738       C  0.37965183  0.33809703  0.63099471     0.36800
C2739       C  0.42678833  0.31746391  0.64541437     0.06400
F2740       F  0.43649622  0.34554924  0.61773618    -0.19500
H2741       H  0.40852054  0.36341725  0.60190927     0.16200
F2742       F  0.36110844  0.33545417  0.63532295    -0.23200
H2743       H  0.38879045  0.31717513  0.65068003     0.18000
C2744       C  0.42629965  0.31508928  0.66510387     0.26000
C2745       C  0.43890682  0.30286515  0.67392752    -0.11700
C2746       C  0.45245542  0.29280675  0.66342777    -0.25700
C2747       C  0.45320300  0.29541064  0.64373041     0.36900
C2748       C  0.44038345  0.30756408  0.63483619    -0.27400
F2749       F  0.41378595  0.32480515  0.67590540    -0.19500
H2750       H  0.43812951  0.30144064  0.68914268     0.16200
F2751       F  0.46596089  0.28594512  0.63301281    -0.23200
H2752       H  0.44082938  0.30894768  0.61960715     0.18000
C2753       C  0.40656223  0.40218857  0.54476441    -0.27200
C2754       C  0.41062980  0.42000093  0.55253865     0.06400
C2755       C  0.40158388  0.42519239  0.56951712     0.26000
C2756       C  0.38854378  0.41303970  0.57816598    -0.11700
C2757       C  0.38425130  0.39538864  0.57022662    -0.25700
C2758       C  0.39368051  0.38994109  0.55353513     0.36800
C2759       C  0.42399399  0.43320088  0.54281739     0.06400
F2760       F  0.40555238  0.44192969  0.57796765    -0.19500
H2761       H  0.38158592  0.41760937  0.59099928     0.16200
F2762       F  0.39085145  0.37260191  0.54588563    -0.23200
H2763       H  0.41321684  0.39778189  0.53171618     0.18000
C2764       C  0.44160237  0.42704470  0.53580657     0.26000
C2765       C  0.45407455  0.43979286  0.52710419    -0.11700
C2766       C  0.44933142  0.45896221  0.52509441    -0.25700
C2767       C  0.43159628  0.46502048  0.53192045     0.36900
C2768       C  0.41914460  0.45227127  0.54054393    -0.27400
F2769       F  0.44705942  0.40882619  0.53785305    -0.19500
H2770       H  0.46756824  0.43462940  0.52205219     0.16200
F2771       F  0.42631621  0.48335921  0.53065627    -0.23200
H2772       H  0.40557350  0.45737487  0.54544664     0.18000
C2773       C  0.54818626  0.41571478  0.39452868    -0.27200
C2774       C  0.55383824  0.41662698  0.41352400     0.06400
C2775       C  0.56846570  0.40475383  0.41982148     0.26000
C2776       C  0.57725856  0.39226744  0.40725117    -0.11700
C2777       C  0.57142338  0.39122735  0.38831954    -0.25700
C2778       C  0.55685484  0.40317699  0.38202190     0.36800
C2779       C  0.54462875  0.43026206  0.42648874     0.06400
F2780       F  0.57450261  0.40551033  0.43801370    -0.19500
H2781       H  0.58844252  0.38319229  0.41237758     0.16200
F2782       F  0.55129498  0.40308529  0.36365860    -0.23200
H2783       H  0.53695852  0.42472361  0.38937717     0.18000
C2784       C  0.54349274  0.44943100  0.42165667     0.26000
C2785       C  0.53469339  0.46223573  0.43378813    -0.11700
C2786       C  0.52684208  0.45629212  0.45106525    -0.25700
C2787       C  0.52788770  0.43701506  0.45584812     0.36900
C2788       C  0.53671870  0.42418542  0.44364432    -0.27400
F2789       F  0.55136260  0.45589331  0.40540231    -0.19500
H2790       H  0.53431306  0.47694412  0.42971585     0.16200
F2791       F  0.52029157  0.43047456  0.47219348    -0.23200
H2792       H  0.53723237  0.40942287  0.44751089     0.18000
C2793       C  0.44325646  0.67927529  0.33208724    -0.27200
C2794       C  0.42960320  0.67277544  0.31927423     0.06400
C2795       C  0.42883871  0.68076958  0.30111376     0.26000
C2796       C  0.44124786  0.69542309  0.29611161    -0.11700
C2797       C  0.45466906  0.70231069  0.30911341    -0.25700
C2798       C  0.45578311  0.69371574  0.32708954     0.36800
C2799       C  0.41591690  0.65805768  0.32526754     0.06400
F2800       F  0.41564433  0.67486589  0.28846750    -0.19500
H2801       H  0.44006413  0.70164887  0.28219979     0.16200
F2802       F  0.46903027  0.69913986  0.33991295    -0.23200
H2803       H  0.44421460  0.67310118  0.34604928     0.18000
C2804       C  0.41514723  0.64047077  0.31614451     0.26000
C2805       C  0.40226750  0.62666703  0.32216655    -0.11700
C2806       C  0.39002267  0.63012009  0.33744545    -0.25700
C2807       C  0.39080834  0.64775448  0.34653450     0.36900
C2808       C  0.40370854  0.66152694  0.34052609    -0.27400
F2809       F  0.42720919  0.63648213  0.30177343    -0.19500
H2810       H  0.40207489  0.61312183  0.31508617     0.16200
F2811       F  0.37870023  0.65192381  0.36081137    -0.23200
H2812       H  0.40404154  0.67504799  0.34765727     0.18000
C2813       C  0.44563920  0.54373061  0.41302347    -0.27200
C2814       C  0.42790338  0.55075172  0.41857998     0.06400
C2815       C  0.42189656  0.54765943  0.43730057     0.26000
C2816       C  0.43373641  0.53854403  0.45026640    -0.11700
C2817       C  0.45178208  0.53209346  0.44490937    -0.25700
C2818       C  0.45743305  0.53446973  0.42593290     0.36800
C2819       C  0.41574051  0.56099825  0.40472947     0.06400
F2820       F  0.40443394  0.55316077  0.44304269    -0.19500
H2821       H  0.42880801  0.53677758  0.46464270     0.16200
F2822       F  0.47441248  0.52800593  0.41977628    -0.23200
H2823       H  0.45056614  0.54572242  0.39867438     0.18000
C2824       C  0.40696043  0.57817447  0.40944651     0.26000
C2825       C  0.39508539  0.58725065  0.39648810    -0.11700
C2826       C  0.39160667  0.57950482  0.37851742    -0.25700
C2827       C  0.40138730  0.56293118  0.37340135     0.36900
C2828       C  0.41313120  0.55377417  0.38641746    -0.27400
F2829       F  0.41011265  0.58643394  0.42647236    -0.19500
H2830       H  0.38847385  0.60026234  0.40076020     0.16200
F2831       F  0.40006961  0.55574502  0.35567337    -0.23200
H2832       H  0.42006352  0.54083714  0.38219999     0.18000
C2833       C  0.44413160  0.57816508  0.55201274    -0.27200
C2834       C  0.45534072  0.58773826  0.56529433     0.06400
C2835       C  0.47483246  0.58381448  0.56610685     0.26000
C2836       C  0.48279956  0.57023664  0.55410598    -0.11700
C2837       C  0.47150283  0.56026157  0.54108433    -0.25700
C2838       C  0.45203957  0.56468373  0.53996582     0.36800
C2839       C  0.44630455  0.60082941  0.57897239     0.06400
F2840       F  0.48601760  0.59247416  0.57909316    -0.19500
H2841       H  0.49776703  0.56722519  0.55534143     0.16200
F2842       F  0.44050228  0.55597288  0.52731114    -0.23200
H2843       H  0.42911193  0.58106601  0.55106462     0.18000
C2844       C  0.45277123  0.61945809  0.58135947     0.26000
C2845       C  0.44424845  0.63132126  0.59472280    -0.11700
C2846       C  0.42905163  0.62488991  0.60584245    -0.25700
C2847       C  0.42249867  0.60628088  0.60324667     0.36900
C2848       C  0.43102073  0.59447728  0.58992773    -0.27400
F2849       F  0.46702212  0.62631077  0.57047986    -0.19500
H2850       H  0.44937380  0.64565221  0.59619865     0.16200
F2851       F  0.40833316  0.59913481  0.61402615    -0.23200
H2852       H  0.42590019  0.58013983  0.58841991     0.18000
C2853       C  0.42405887  0.69394588  0.68797068    -0.27200
C2854       C  0.44369288  0.69441962  0.69049470     0.06400
C2855       C  0.45531940  0.68481013  0.67759805     0.26000
C2856       C  0.44733712  0.67449777  0.66268163    -0.11700
C2857       C  0.42752825  0.67336539  0.66046093    -0.25700
C2858       C  0.41603477  0.68352237  0.67326862     0.36800
C2859       C  0.45177717  0.70400009  0.70726849     0.06400
F2860       F  0.47443241  0.68524336  0.67955476    -0.19500
H2861       H  0.45686536  0.66702761  0.65346719     0.16200
F2862       F  0.39686343  0.68269686  0.67207862    -0.23200
H2863       H  0.41484444  0.70108472  0.69788211     0.18000
C2864       C  0.44761861  0.72296055  0.71121368     0.26000
C2865       C  0.45502674  0.73164913  0.72737430    -0.11700
C2866       C  0.46655027  0.72155341  0.74003210    -0.25700
C2867       C  0.47040037  0.70241770  0.73614679     0.36900
C2868       C  0.46313068  0.69384187  0.71989627    -0.27400
F2869       F  0.43670060  0.73317818  0.69923655    -0.19500
H2870       H  0.45180225  0.74635530  0.72990078     0.16200
F2871       F  0.48135675  0.69194705  0.74786454    -0.23200
H2872       H  0.46620545  0.67911629  0.71725462     0.18000
C2873       C  0.58248955  0.37223440  0.67879559    -0.27200
C2874       C  0.58347055  0.35450731  0.67003471     0.06400
C2875       C  0.59599470  0.35196419  0.65478711     0.26000
C2876       C  0.60724134  0.36695839  0.64841936    -0.11700
C2877       C  0.60629073  0.38466008  0.65720548    -0.25700
C2878       C  0.59378279  0.38719712  0.67247347     0.36800
C2879       C  0.57071854  0.33903144  0.67618206     0.06400
F2880       F  0.59765578  0.33484657  0.64635910    -0.19500
H2881       H  0.61708148  0.36459482  0.63696099     0.16200
F2882       F  0.59222814  0.40425482  0.68104066    -0.23200
H2883       H  0.57272938  0.37455760  0.69035939     0.18000
C2884       C  0.57049569  0.33261370  0.69498354     0.26000
C2885       C  0.55813863  0.31807410  0.70043832    -0.11700
C2886       C  0.54571569  0.30974817  0.68727295    -0.25700
C2887       C  0.54585778  0.31651010  0.66848904     0.36900
C2888       C  0.55828484  0.33086886  0.66309067    -0.27400
F2889       F  0.58251090  0.34011986  0.70795342    -0.19500
H2890       H  0.55841505  0.31323800  0.71494147     0.16200
F2891       F  0.53383159  0.30949520  0.65525099    -0.23200
H2892       H  0.55802014  0.33584389  0.64862474     0.18000
C2893       C  0.58145569  0.46014386  0.60963386    -0.27200
C2894       C  0.58387269  0.45658377  0.59020376     0.06400
C2895       C  0.59832841  0.44412125  0.58456737     0.26000
C2896       C  0.60935152  0.43479900  0.59804648    -0.11700
C2897       C  0.60670518  0.43811988  0.61739378    -0.25700
C2898       C  0.59283840  0.45110363  0.62312540     0.36800
C2899       C  0.57103024  0.46542355  0.57596542     0.06400
F2900       F  0.60212242  0.44124683  0.56599178    -0.19500
H2901       H  0.62028203  0.42519746  0.59333335     0.16200
F2902       F  0.58989803  0.45457159  0.64175485    -0.23200
H2903       H  0.57047229  0.46964931  0.61439298     0.18000
C2904       C  0.56254871  0.45444647  0.56168792     0.26000
C2905       C  0.55049246  0.46269585  0.54840733    -0.11700
C2906       C  0.54631883  0.48208569  0.54899264    -0.25700
C2907       C  0.55463623  0.49309414  0.56341299     0.36900
C2908       C  0.56680744  0.48479748  0.57673547    -0.27400
F2909       F  0.56538446  0.43554079  0.56088372    -0.19500
H2910       H  0.54429884  0.45373015  0.53764636     0.16200
F2911       F  0.55082195  0.51177975  0.56488691    -0.23200
H2912       H  0.57304668  0.49356828  0.58763122     0.18000
C2913       C  0.72018413  0.46430007  0.68769673    -0.27200
C2914       C  0.70702939  0.45402851  0.69841869     0.06400
C2915       C  0.71102284  0.45032999  0.71750526     0.26000
C2916       C  0.72762024  0.45733239  0.72579673    -0.11700
C2917       C  0.74064681  0.46805830  0.71521070    -0.25700
C2918       C  0.73682070  0.47122246  0.69589882     0.36800
C2919       C  0.68940721  0.44698493  0.68940204     0.06400
F2920       F  0.69857734  0.44048111  0.72829454    -0.19500
H2921       H  0.73006086  0.45464726  0.74065617     0.16200
F2922       F  0.74893067  0.48125727  0.68490536    -0.23200
H2923       H  0.71755507  0.46696113  0.67285749     0.18000
C2924       C  0.67749046  0.45922479  0.67933894     0.26000
C2925       C  0.66190695  0.45218719  0.66931164    -0.11700
C2926       C  0.65793938  0.43269173  0.66889509    -0.25700
C2927       C  0.66966862  0.42059768  0.67963756     0.36900
C2928       C  0.68505808  0.42772103  0.68982922    -0.27400
F2929       F  0.68118082  0.47801266  0.67884930    -0.19500
H2930       H  0.65376228  0.46212999  0.66120285     0.16200
F2931       F  0.66698027  0.40163507  0.67936186    -0.23200
H2932       H  0.69416860  0.41800904  0.69732963     0.18000
C2933       C  0.58886934  0.68743271  0.38582020    -0.27200
C2934       C  0.58331796  0.68161094  0.36770907     0.06400
C2935       C  0.59205911  0.66570066  0.35960737     0.26000
C2936       C  0.60661117  0.65637451  0.36920587    -0.11700
C2937       C  0.61287138  0.66290616  0.38684137    -0.25700
C2938       C  0.60336327  0.67814605  0.39537339     0.36800
C2939       C  0.56961344  0.69316414  0.35688642     0.06400
F2940       F  0.58668889  0.65931224  0.34232577    -0.19500
H2941       H  0.61332354  0.64443076  0.36255908     0.16200
F2942       F  0.60804365  0.68411319  0.41300328    -0.23200
H2943       H  0.58241753  0.69963567  0.39236502     0.18000
C2944       C  0.55267790  0.69964292  0.36509461     0.26000
C2945       C  0.54082128  0.71194164  0.35515525    -0.11700
C2946       C  0.54558712  0.71797569  0.33684778    -0.25700
C2947       C  0.56240598  0.71108363  0.32855241     0.36900
C2948       C  0.57422732  0.69894890  0.33853795    -0.27400
F2949       F  0.54752490  0.69398167  0.38266994    -0.19500
H2950       H  0.52790779  0.71674015  0.36182236     0.16200
F2951       F  0.56769859  0.71613904  0.31082342    -0.23200
H2952       H  0.58733612  0.69444025  0.33203638     0.18000
C2953       C  0.56482371  0.57075372  0.44411165    -0.27200
C2954       C  0.57815778  0.57971571  0.45581696     0.06400
C2955       C  0.57734935  0.57630747  0.47542927     0.26000
C2956       C  0.56369942  0.56397147  0.48294706    -0.11700
C2957       C  0.55044808  0.55488426  0.47115581    -0.25700
C2958       C  0.55111574  0.55863103  0.45157604     0.36800
C2959       C  0.59232475  0.59286711  0.44725226     0.06400
F2960       F  0.58932278  0.58532061  0.48743689    -0.19500
H2961       H  0.56349179  0.56157853  0.49805309     0.16200
F2962       F  0.53840033  0.55078792  0.43949429    -0.23200
H2963       H  0.56504373  0.57308191  0.42899082     0.18000
C2964       C  0.61171666  0.59210632  0.45193991     0.26000
C2965       C  0.62472849  0.60423330  0.44313844    -0.11700
C2966       C  0.61878776  0.61699674  0.42919172    -0.25700
C2967       C  0.59948529  0.61772044  0.42445213     0.36900
C2968       C  0.58645241  0.60589435  0.43347409    -0.27400
F2969       F  0.61825898  0.57914813  0.46440943    -0.19500
H2970       H  0.63956836  0.60332832  0.44687466     0.16200
F2971       F  0.59307445  0.63023066  0.41146206    -0.23200
H2972       H  0.57163873  0.60696948  0.42968752     0.18000
C2973       C  0.20293649  0.48006630  0.79185422    -0.27200
C2974       C  0.20164979  0.46059141  0.79522534     0.06400
C2975       C  0.21670881  0.44896422  0.78937264     0.26000
C2976       C  0.23283575  0.45680434  0.78092130    -0.11700
C2977       C  0.23445098  0.47638875  0.77825423    -0.25700
C2978       C  0.21910712  0.48792948  0.78355519     0.36800
C2979       C  0.18503501  0.45266579  0.80555629     0.06400
F2980       F  0.21627232  0.43009923  0.79256192    -0.19500
H2981       H  0.24432141  0.44753376  0.77694128     0.16200
F2982       F  0.21959883  0.50683968  0.78066030    -0.23200
H2983       H  0.19138829  0.48928608  0.79577315     0.18000
C2984       C  0.17860575  0.46101814  0.82239315     0.26000
C2985       C  0.16397470  0.45271245  0.83280026    -0.11700
C2986       C  0.15514912  0.43587028  0.82679828    -0.25700
C2987       C  0.16194322  0.42740220  0.80996917     0.36900
C2988       C  0.17625011  0.43601881  0.79933366    -0.27400
F2989       F  0.18732620  0.47654022  0.82954903    -0.19500
H2990       H  0.16031287  0.45902761  0.84622569     0.16200
F2991       F  0.15599506  0.41013053  0.80426684    -0.23200
H2992       H  0.18096397  0.42921432  0.78647220     0.18000
C2993       C  0.31254627  0.45285895  0.65982197    -0.27200
C2994       C  0.31682426  0.43394755  0.66367186     0.06400
C2995       C  0.31341413  0.42689982  0.68193844     0.26000
C2996       C  0.30622026  0.43870176  0.69610196    -0.11700
C2997       C  0.30233137  0.45779620  0.69240139    -0.25700
C2998       C  0.30538807  0.46467716  0.67391928     0.36800
C2999       C  0.32495954  0.42179246  0.64859822     0.06400
F3000       F  0.31693196  0.40855999  0.68607552    -0.19500
H3001       H  0.30408079  0.43294355  0.71010477     0.16200
F3002       F  0.30196947  0.48296320  0.66944905    -0.23200
H3003       H  0.31517856  0.45864796  0.64590983     0.18000
C3004       C  0.31631225  0.42059834  0.63073398     0.26000
C3005       C  0.32392870  0.40899016  0.61669967    -0.11700
C3006       C  0.34032654  0.39832180  0.62010529    -0.25700
C3007       C  0.34918324  0.39976036  0.63787189     0.36900
C3008       C  0.34153957  0.41139523  0.65193897    -0.27400
F3009       F  0.30012297  0.43017761  0.62703264    -0.19500
H3010       H  0.31685062  0.40820055  0.60314425     0.16200
F3011       F  0.36467211  0.38927964  0.64201987    -0.23200
H3012       H  0.34854964  0.41223014  0.66552821     0.18000
C3013       C  0.36820229  0.56535669  0.69983413    -0.27200
C3014       C  0.36030193  0.57137208  0.68263630     0.06400
C3015       C  0.34344959  0.56303823  0.67625881     0.26000
C3016       C  0.33408613  0.54982240  0.68743060    -0.11700
C3017       C  0.34130433  0.54453762  0.70521459    -0.25700
C3018       C  0.35883331  0.55202569  0.71106916     0.36800
C3019       C  0.36931901  0.58675403  0.67173478     0.06400
F3020       F  0.33594700  0.56777707  0.65925359    -0.19500
H3021       H  0.32085879  0.54404779  0.68224126     0.16200
F3022       F  0.36662826  0.54701368  0.72784771    -0.23200
H3023       H  0.38132755  0.57148746  0.70487893     0.18000
C3024       C  0.35884503  0.60274143  0.66627967     0.26000
C3025       C  0.36766674  0.61752649  0.65661902    -0.11700
C3026       C  0.38699372  0.61662532  0.65245679    -0.25700
C3027       C  0.39747499  0.60073403  0.65784859     0.36900
C3028       C  0.38865747  0.58586289  0.66733730    -0.27400
F3029       F  0.34034891  0.60449623  0.67115436    -0.19500
H3030       H  0.35961321  0.63000334  0.65306031     0.16200
F3031       F  0.41635494  0.59989424  0.65440454    -0.23200
H3032       H  0.39696709  0.57373840  0.67148067     0.18000
C3033       C  0.31747963  0.36936045  0.10049021    -0.27200
C3034       C  0.32336421  0.37209489  0.08177959     0.06400
C3035       C  0.33894954  0.38389171  0.07809071     0.26000
C3036       C  0.34833892  0.39294469  0.09304509    -0.11700
C3037       C  0.34205781  0.39056348  0.11172882    -0.25700
C3038       C  0.32665926  0.37849325  0.11533287     0.36800
C3039       C  0.31276310  0.36256752  0.06649251     0.06400
F3040       F  0.34507431  0.38657687  0.06012084    -0.19500
H3041       H  0.36010458  0.40228244  0.08999280     0.16200
F3042       F  0.32047506  0.37548420  0.13323648    -0.23200
H3043       H  0.30548979  0.36031405  0.10357590     0.18000
C3044       C  0.31065496  0.34290716  0.06681906     0.26000
C3045       C  0.29810405  0.33403066  0.05446780    -0.11700
C3046       C  0.28741354  0.34453353  0.04144221    -0.25700
C3047       C  0.29026860  0.36418292  0.04043519     0.36900
C3048       C  0.30284767  0.37310375  0.05294453    -0.27400
F3049       F  0.32047272  0.33232892  0.07942408    -0.19500
H3050       H  0.29660348  0.31884901  0.05527871     0.16200
F3051       F  0.28031072  0.37486368  0.02804579    -0.23200
H3052       H  0.30422167  0.38831561  0.05262577     0.18000
C3053       C  0.41954115  0.46588895  0.05917825    -0.27200
C3054       C  0.42657306  0.46146284  0.07716830     0.06400
C3055       C  0.44563781  0.46533855  0.08134282     0.26000
C3056       C  0.45730339  0.47378937  0.06779097    -0.11700
C3057       C  0.45025112  0.47842630  0.04976526    -0.25700
C3058       C  0.43117236  0.47424214  0.04558605     0.36800
C3059       C  0.41383098  0.45286654  0.09139754     0.06400
F3060       F  0.45287567  0.46135376  0.09865141    -0.19500
H3061       H  0.47190392  0.47670465  0.07146615     0.16200
F3062       F  0.42366357  0.47808015  0.02836657    -0.23200
H3063       H  0.40496543  0.46271969  0.05558727     0.18000
C3064       C  0.39631261  0.46121235  0.09564587     0.26000
C3065       C  0.38389376  0.45256942  0.10833961    -0.11700
C3066       C  0.38869168  0.43545790  0.11705120    -0.25700
C3067       C  0.40646379  0.42736185  0.11318643     0.36900
C3068       C  0.41886300  0.43600102  0.10043056    -0.27400
F3069       F  0.39127084  0.47782119  0.08760017    -0.19500
H3070       H  0.37033164  0.45910264  0.11107321     0.16200
F3071       F  0.41208385  0.41134214  0.12200621    -0.23200
H3072       H  0.43231445  0.42936671  0.09739087     0.18000
C3073       C  0.60634423  0.65516151  0.82012068    -0.27200
C3074       C  0.58698896  0.65613352  0.82449410     0.06400
C3075       C  0.57899735  0.64212526  0.83610879     0.26000
C3076       C  0.59019932  0.62746571  0.84312310    -0.11700
C3077       C  0.60952440  0.62649790  0.83880278    -0.25700
C3078       C  0.61751125  0.64046211  0.82711331     0.36800
C3079       C  0.57514733  0.67153813  0.81666210     0.06400
F3080       F  0.56037290  0.64268199  0.84078390    -0.19500
H3081       H  0.58357332  0.61654950  0.85137007     0.16200
F3082       F  0.63614164  0.63989772  0.82246728    -0.23200
H3083       H  0.61275759  0.66566049  0.81102994     0.18000
C3084       C  0.58030946  0.69056232  0.81907106     0.26000
C3085       C  0.56867245  0.70494416  0.81213425    -0.11700
C3086       C  0.55160492  0.70064524  0.80281468    -0.25700
C3087       C  0.54673341  0.68157257  0.79998555     0.36900
C3088       C  0.55842253  0.66722716  0.80682331    -0.27400
F3089       F  0.59615909  0.69525401  0.82887754    -0.19500
H3090       H  0.57266103  0.71947705  0.81472363     0.16200
F3091       F  0.53064661  0.67674924  0.79063895    -0.23200
H3092       H  0.55435837  0.65266884  0.80449988     0.18000
C3093       C  0.56351623  0.52900870  0.91983435    -0.27200
C3094       C  0.56876619  0.54808507  0.92147997     0.06400
C3095       C  0.56118303  0.55880895  0.93637541     0.26000
C3096       C  0.54851992  0.55069275  0.94913444    -0.11700
C3097       C  0.54320218  0.53163672  0.94756056    -0.25700
C3098       C  0.55092893  0.52079131  0.93276098     0.36800
C3099       C  0.58183488  0.55692369  0.90756784     0.06400
F3100       F  0.56633449  0.57709388  0.93889765    -0.19500
H3101       H  0.54303926  0.55938296  0.96046140     0.16200
F3102       F  0.54610294  0.50238481  0.93051886    -0.23200
H3103       H  0.56895020  0.52051351  0.90834028     0.18000
C3104       C  0.59895862  0.54827661  0.90239689     0.26000
C3105       C  0.61118201  0.55708489  0.88954587    -0.11700
C3106       C  0.60670530  0.57474587  0.88162690    -0.25700
C3107       C  0.58966271  0.58342010  0.88707851     0.36900
C3108       C  0.57733117  0.57447945  0.89964376    -0.27400
F3109       F  0.60418086  0.53160613  0.91019455    -0.19500
H3110       H  0.62439352  0.55019494  0.88610106     0.16200
F3111       F  0.58453444  0.60038109  0.88012058    -0.23200
H3112       H  0.56410918  0.58133419  0.90315395     0.18000
C3113       C  0.68333047  0.55034847  0.82935147    -0.27200
C3114       C  0.68615693  0.55444688  0.81020036     0.06400
C3115       C  0.67376610  0.56695113  0.80113068     0.26000
C3116       C  0.65956239  0.57609418  0.81133020    -0.11700
C3117       C  0.65737981  0.57302451  0.83090604    -0.25700
C3118       C  0.66917328  0.55949704  0.83961795     0.36800
C3119       C  0.70270078  0.54651861  0.80011950     0.06400
F3120       F  0.67560589  0.57060475  0.78239505    -0.19500
H3121       H  0.65095166  0.58596706  0.80366875     0.16200
F3122       F  0.66767973  0.55584395  0.85838820    -0.23200
H3123       H  0.69267781  0.54067121  0.83660228     0.18000
C3124       C  0.71550095  0.55847020  0.79072548     0.26000
C3125       C  0.73144038  0.55105467  0.78179822    -0.11700
C3126       C  0.73513121  0.53158974  0.78216999    -0.25700
C3127       C  0.72226282  0.51960194  0.79162712     0.36900
C3128       C  0.70626374  0.52707251  0.80053602    -0.27400
F3129       F  0.71299203  0.57743940  0.79076743    -0.19500
H3130       H  0.74108391  0.56069131  0.77483245     0.16200
F3131       F  0.72503221  0.50068311  0.79231450    -0.23200
H3132       H  0.69659117  0.51764843  0.80775934     0.18000
C3133       C  0.39909841  0.69244680  0.86743476    -0.27200
C3134       C  0.41740760  0.68521984  0.86982263     0.06400
C3135       C  0.41973976  0.66799945  0.87939154     0.26000
C3136       C  0.40398769  0.65831886  0.88654471    -0.11700
C3137       C  0.38568950  0.66568498  0.88438196    -0.25700
C3138       C  0.38336726  0.68278653  0.87453983     0.36800
C3139       C  0.43380076  0.69544658  0.86161672     0.06400
F3140       F  0.43729508  0.66085770  0.88233891    -0.19500
H3141       H  0.40617061  0.64539370  0.89437637     0.16200
F3142       F  0.36586815  0.69008950  0.87161023    -0.23200
H3143       H  0.39697303  0.70552118  0.85983277     0.18000
C3144       C  0.44560789  0.68654007  0.84841645     0.26000
C3145       C  0.45978345  0.69675393  0.83920103    -0.11700
C3146       C  0.46257923  0.71605441  0.84295897    -0.25700
C3147       C  0.45126758  0.72479959  0.85679071     0.36900
C3148       C  0.43691534  0.71457202  0.86589894    -0.27400
F3149       F  0.44271752  0.66822814  0.84358871    -0.19500
H3150       H  0.46824680  0.68962793  0.82863634     0.16200
F3151       F  0.45331702  0.74342421  0.86075306    -0.23200
H3152       H  0.42792998  0.72168308  0.87603463     0.18000
C3153       C  0.31813993  0.61064769  0.84850812    -0.27200
C3154       C  0.32637312  0.59271796  0.84678382     0.06400
C3155       C  0.34092965  0.58771754  0.85944448     0.26000
C3156       C  0.34717006  0.60045331  0.87326956    -0.11700
C3157       C  0.33900070  0.61837165  0.87497221    -0.25700
C3158       C  0.32431624  0.62333942  0.86242692     0.36800
C3159       C  0.32047240  0.57968142  0.83125986     0.06400
F3160       F  0.34889903  0.57033892  0.85871570    -0.19500
H3161       H  0.35812012  0.59608024  0.88293706     0.16200
F3162       F  0.31630797  0.64069597  0.86319012    -0.23200
H3163       H  0.30719133  0.61503152  0.83875552     0.18000
C3164       C  0.30126832  0.57586595  0.82732031     0.26000
C3165       C  0.29621036  0.56355776  0.81255636    -0.11700
C3166       C  0.31015495  0.55480169  0.80139187    -0.25700
C3167       C  0.32936063  0.55881863  0.80536412     0.36900
C3168       C  0.33432999  0.57109591  0.82000703    -0.27400
F3169       F  0.28739262  0.58365574  0.83801485    -0.19500
H3170       H  0.28135194  0.56078753  0.80996682     0.16200
F3171       F  0.34354025  0.55095173  0.79512953    -0.23200
H3172       H  0.34918354  0.57405697  0.82243553     0.18000
C3173       C  0.40122980  0.60840274  0.95284175    -0.27200
C3174       C  0.40770617  0.59247257  0.94299761     0.06400
C3175       C  0.40132450  0.58961316  0.92435315     0.26000
C3176       C  0.38847042  0.60215286  0.91605596    -0.11700
C3177       C  0.38164356  0.61790490  0.92601759    -0.25700
C3178       C  0.38865208  0.62111354  0.94445165     0.36800
C3179       C  0.42103404  0.57899511  0.95225422     0.06400
F3180       F  0.40780034  0.57489929  0.91394359    -0.19500
H3181       H  0.38385724  0.59932753  0.90180889     0.16200
F3182       F  0.38397407  0.63685791  0.95427872    -0.23200
H3183       H  0.40586540  0.61103913  0.96718923     0.18000
C3184       C  0.43686812  0.58548435  0.96252922     0.26000
C3185       C  0.44919448  0.57269734  0.97120574    -0.11700
C3186       C  0.44604417  0.55315094  0.96998072    -0.25700
C3187       C  0.43020498  0.54664119  0.95972988     0.36900
C3188       C  0.41787811  0.55943727  0.95104072    -0.27400
F3189       F  0.44076257  0.60419261  0.96381068    -0.19500
H3190       H  0.46128168  0.57814072  0.97891658     0.16200
F3191       F  0.42686363  0.52789798  0.95762934    -0.23200
H3192       H  0.40572024  0.55400769  0.94343984     0.18000
C3193       C  0.30522528  0.69285120  0.92507572    -0.27200
C3194       C  0.30956660  0.69834868  0.94361653     0.06400
C3195       C  0.32334165  0.68817614  0.95363682     0.26000
C3196       C  0.33298060  0.67326925  0.94500652    -0.11700
C3197       C  0.32905104  0.66791411  0.92618620    -0.25700
C3198       C  0.31500630  0.67813431  0.91632156     0.36800
C3199       C  0.30046514  0.71528650  0.95201347     0.06400
F3200       F  0.32848708  0.69347452  0.97135198    -0.19500
H3201       H  0.34437010  0.66688199  0.95287527     0.16200
F3202       F  0.31143503  0.67475344  0.89778547    -0.23200
H3203       H  0.29460717  0.70040815  0.91707525     0.18000
C3204       C  0.29949745  0.73236489  0.94189226     0.26000
C3205       C  0.29096225  0.74824087  0.94993637    -0.11700
C3206       C  0.28361180  0.74753778  0.96833494    -0.25700
C3207       C  0.28467805  0.73053244  0.97851114     0.36900
C3208       C  0.29290437  0.71456756  0.97034809    -0.27400
F3209       F  0.30731657  0.73389449  0.92444399    -0.19500
H3210       H  0.29044536  0.76123054  0.94191754     0.16200
F3211       F  0.27726071  0.72917191  0.99615031    -0.23200
H3212       H  0.29322339  0.70154829  0.97832233     0.18000
C3213       C  0.34384253  0.32905614  0.89152789    -0.27200
C3214       C  0.34289727  0.33575982  0.91018741     0.06400
C3215       C  0.35703820  0.34823977  0.91665126     0.26000
C3216       C  0.37144662  0.35425065  0.90451661    -0.11700
C3217       C  0.37231297  0.34768175  0.88584205    -0.25700
C3218       C  0.35840535  0.33491538  0.87943707     0.36800
C3219       C  0.32704579  0.32995869  0.92274207     0.06400
F3220       F  0.35722002  0.35425579  0.93486398    -0.19500
H3221       H  0.38223095  0.36373777  0.90988134     0.16200
F3222       F  0.35855780  0.32851915  0.86135729    -0.23200
H3223       H  0.33308571  0.31951301  0.88621311     0.18000
C3224       C  0.31657129  0.34354849  0.93266704     0.26000
C3225       C  0.30210717  0.33806497  0.94491889    -0.11700
C3226       C  0.29753555  0.31890064  0.94755595    -0.25700
C3227       C  0.30766455  0.30527963  0.93716402     0.36900
C3228       C  0.32224072  0.31081993  0.92487281    -0.27400
F3229       F  0.32009534  0.36222571  0.93030133    -0.19500
H3230       H  0.29451935  0.34898782  0.95244107     0.16200
F3231       F  0.30369607  0.28663649  0.93896548    -0.23200
H3232       H  0.33003790  0.30010769  0.91725478     0.18000
C3233       C  0.35891689  0.41520920  0.83725877    -0.27200
C3234       C  0.36881247  0.42565566  0.82354690     0.06400
C3235       C  0.38822339  0.42233550  0.82092571     0.26000
C3236       C  0.39718192  0.40792910  0.83091571    -0.11700
C3237       C  0.38700172  0.39670919  0.84374897    -0.25700
C3238       C  0.36792898  0.40085421  0.84734788     0.36800
C3239       C  0.35843616  0.43850990  0.81075607     0.06400
F3240       F  0.39821688  0.43211989  0.80779901    -0.19500
H3241       H  0.41198182  0.40508311  0.82814854     0.16200
F3242       F  0.35766180  0.39018304  0.85953705    -0.23200
H3243       H  0.34398117  0.41770477  0.83960644     0.18000
C3244       C  0.34265021  0.43182126  0.80069516     0.26000
C3245       C  0.33290870  0.44367738  0.78841506    -0.11700
C3246       C  0.33869016  0.46247400  0.78574524    -0.25700
C3247       C  0.35477580  0.46910725  0.79554924     0.36900
C3248       C  0.36452103  0.45717484  0.80795387    -0.27400
F3249       F  0.33688242  0.41362492  0.80239606    -0.19500
H3250       H  0.32076605  0.43803804  0.78093614     0.16200
F3251       F  0.36086068  0.48716307  0.79353207    -0.23200
H3252       H  0.37670760  0.46256225  0.81554693     0.18000
C3253       C  0.44822584  0.39316796  0.91698691    -0.27200
C3254       C  0.44315673  0.41229706  0.91656023     0.06400
C3255       C  0.42926957  0.41829293  0.90368307     0.26000
C3256       C  0.42053750  0.40534506  0.89160220    -0.11700
C3257       C  0.42553830  0.38620705  0.89200639    -0.25700
C3258       C  0.43945879  0.38017216  0.90486059     0.36800
C3259       C  0.45217323  0.42596254  0.92964514     0.06400
F3260       F  0.42450477  0.43678174  0.90244233    -0.19500
H3261       H  0.41015697  0.41041028  0.88156429     0.16200
F3262       F  0.44425285  0.36169317  0.90600757    -0.23200
H3263       H  0.45879429  0.38827357  0.92691552     0.18000
C3264       C  0.44102007  0.43706786  0.94167713     0.26000
C3265       C  0.44944292  0.45048693  0.95343829    -0.11700
C3266       C  0.46920701  0.45320446  0.95352983    -0.25700
C3267       C  0.48042396  0.44177666  0.94168409     0.36900
C3268       C  0.47192555  0.42824367  0.92993239    -0.27400
F3269       F  0.42193720  0.43479399  0.94220908    -0.19500
H3270       H  0.44035170  0.45882636  0.96246989     0.16200
F3271       F  0.49952438  0.44379474  0.94119461    -0.23200
H3272       H  0.48074429  0.41978289  0.92073810     0.18000
C3273       C  0.42311205  0.31903454  0.80909347    -0.27200
C3274       C  0.44246081  0.31496205  0.81032245     0.06400
C3275       C  0.45269922  0.32133754  0.82612970     0.26000
C3276       C  0.44387638  0.33233904  0.83998756    -0.11700
C3277       C  0.42462484  0.33728815  0.83833346    -0.25700
C3278       C  0.41423379  0.32983729  0.82295611     0.36800
C3279       C  0.45193624  0.30498098  0.79453675     0.06400
F3280       F  0.47127026  0.31691982  0.82817927    -0.19500
H3281       H  0.45239564  0.33692234  0.85176700     0.16200
F3282       F  0.39552882  0.33369634  0.82087801    -0.23200
H3283       H  0.41493160  0.31434253  0.79701436     0.18000
C3284       C  0.44427340  0.28828142  0.78697062     0.26000
C3285       C  0.45248364  0.27986989  0.77109976    -0.11700
C3286       C  0.46855487  0.28785283  0.76251033    -0.25700
C3287       C  0.47639361  0.30443456  0.77031578     0.36900
C3288       C  0.46810416  0.31287043  0.78612659    -0.27400
F3289       F  0.42892640  0.28001038  0.79502687    -0.19500
H3290       H  0.44628042  0.26701116  0.76558212     0.16200
F3291       F  0.49171293  0.31288030  0.76238330    -0.23200
H3292       H  0.47403932  0.32591252  0.79151189     0.18000
C3293       C  0.52916246  0.59055120  0.05255414    -0.27200
C3294       C  0.53630260  0.58508138  0.07024954     0.06400
C3295       C  0.53506872  0.56600924  0.07553706     0.26000
C3296       C  0.52711580  0.55273813  0.06326557    -0.11700
C3297       C  0.52034599  0.55806997  0.04535626    -0.25700
C3298       C  0.52136026  0.57723273  0.04015882     0.36800
C3299       C  0.54547125  0.59911390  0.08293265     0.06400
F3300       F  0.54223863  0.56001789  0.09227919    -0.19500
H3301       H  0.52669554  0.53812831  0.06768291     0.16200
F3302       F  0.51491177  0.58317340  0.02311463    -0.23200
H3303       H  0.52966492  0.60520153  0.04828132     0.18000
C3304       C  0.55936514  0.61161591  0.07603547     0.26000
C3305       C  0.56857309  0.62409400  0.08830487    -0.11700
C3306       C  0.56422300  0.62427584  0.10759130    -0.25700
C3307       C  0.55005427  0.61216611  0.11447216     0.36900
C3308       C  0.54076394  0.59972411  0.10222606    -0.27400
F3309       F  0.56443002  0.61144747  0.05754258    -0.19500
H3310       H  0.57889485  0.63382254  0.08266437     0.16200
F3311       F  0.54545325  0.61214816  0.13309467    -0.23200
H3312       H  0.52989361  0.59050667  0.10783759     0.18000
C3313       C  0.57148031  0.70008201  0.18205843    -0.27200
C3314       C  0.55224357  0.69858221  0.18659512     0.06400
C3315       C  0.54064583  0.68654757  0.17584730     0.26000
C3316       C  0.54838912  0.67565515  0.16132474    -0.11700
C3317       C  0.56791226  0.67648624  0.15717794    -0.25700
C3318       C  0.57932252  0.68900249  0.16781146     0.36800
C3319       C  0.54474565  0.70852589  0.20338990     0.06400
F3320       F  0.52207521  0.68427001  0.18024580    -0.19500
H3321       H  0.53907664  0.66578266  0.15436827     0.16200
F3322       F  0.59834420  0.68979642  0.16521513    -0.23200
H3323       H  0.58065138  0.70938287  0.19008022     0.18000
C3324       C  0.55414723  0.70723282  0.22089264     0.26000
C3325       C  0.54694687  0.71642996  0.23676616    -0.11700
C3326       C  0.53003822  0.72662354  0.23558395    -0.25700
C3327       C  0.52054778  0.72787814  0.21817001     0.36900
C3328       C  0.52796907  0.71902299  0.20216810    -0.27400
F3329       F  0.56989466  0.69647718  0.22282650    -0.19500
H3330       H  0.55425629  0.71508533  0.25015682     0.16200
F3331       F  0.50430773  0.73794473  0.21657605    -0.23200
H3332       H  0.52062214  0.72036510  0.18880419     0.18000
C3333       C  0.61231329  0.42630453  0.04343798    -0.27200
C3334       C  0.59321490  0.42661385  0.04894349     0.06400
C3335       C  0.58709154  0.41440886  0.06333560     0.26000
C3336       C  0.59988067  0.40238758  0.07227041    -0.11700
C3337       C  0.61897742  0.40200106  0.06686148    -0.25700
C3338       C  0.62515217  0.41412068  0.05233661     0.36800
C3339       C  0.57961950  0.43980385  0.04004990     0.06400
F3340       F  0.56859016  0.41383918  0.06848180    -0.19500
H3341       H  0.59470897  0.39306519  0.08321858     0.16200
F3342       F  0.64363808  0.41458109  0.04713884    -0.23200
H3343       H  0.61731138  0.43570799  0.03246125     0.18000
C3344       C  0.56948643  0.45260603  0.05126401     0.26000
C3345       C  0.55539019  0.46382593  0.04328697    -0.11700
C3346       C  0.55103185  0.46262635  0.02389853    -0.25700
C3347       C  0.56170303  0.45022891  0.01251746     0.36900
C3348       C  0.57589666  0.43898291  0.02057568    -0.27400
F3349       F  0.57320475  0.45420842  0.07002205    -0.19500
H3350       H  0.54775256  0.47338520  0.05244828     0.16200
F3351       F  0.55820070  0.44860472  0.99373280    -0.23200
H3352       H  0.58360331  0.42919766  0.01171061     0.18000
C3353       C  0.68942311  0.29055872  0.03065524    -0.27200
C3354       C  0.69806117  0.30082620  0.04531855     0.06400
C3355       C  0.71541146  0.29438100  0.05266347     0.26000
C3356       C  0.72383449  0.27804886  0.04545259    -0.11700
C3357       C  0.71531915  0.26795258  0.03060932    -0.25700
C3358       C  0.69795704  0.27436573  0.02328428     0.36800
C3359       C  0.68841728  0.31760237  0.05347358     0.06400
F3360       F  0.72446393  0.30409985  0.06652891    -0.19500
H3361       H  0.73728337  0.27353026  0.05121358     0.16200
F3362       F  0.68896472  0.26474075  0.00931161    -0.23200
H3363       H  0.67583588  0.29490123  0.02509106     0.18000
C3364       C  0.68042703  0.33159865  0.04187355     0.26000
C3365       C  0.67001317  0.34644489  0.04978734    -0.11700
C3366       C  0.66726932  0.34765387  0.06948722    -0.25700
C3367       C  0.67609420  0.33399654  0.08102464     0.36900
C3368       C  0.68636824  0.31919685  0.07310006    -0.27400
F3369       F  0.68260440  0.33089346  0.02283082    -0.19500
H3370       H  0.66386693  0.35653356  0.04022787     0.16200
F3371       F  0.67407298  0.33447766  0.10009802    -0.23200
H3372       H  0.69216369  0.30853857  0.08237711     0.18000
C3373       C  0.04924286  0.60468788  0.39853663    -0.27200
C3374       C  0.05645603  0.60220306  0.41683470     0.06400
C3375       C  0.07231404  0.61285806  0.42257035     0.26000
C3376       C  0.08068085  0.62577720  0.41011188    -0.11700
C3377       C  0.07324366  0.62834209  0.39191370    -0.25700
C3378       C  0.05753428  0.61755618  0.38616870     0.36800
C3379       C  0.04776530  0.58778611  0.42928466     0.06400
F3380       F  0.08007154  0.61033567  0.43992863    -0.19500
H3381       H  0.09292737  0.63381450  0.41466301     0.16200
F3382       F  0.05060480  0.61894454  0.36833151    -0.23200
H3383       H  0.03716964  0.59652036  0.39376000     0.18000
C3384       C  0.04185948  0.59213201  0.44774122     0.26000
C3385       C  0.03328326  0.57829651  0.45898086    -0.11700
C3386       C  0.03032488  0.55991218  0.45200513    -0.25700
C3387       C  0.03609542  0.55573008  0.43339309     0.36900
C3388       C  0.04471731  0.56952133  0.42226999    -0.27400
F3389       F  0.04387987  0.60985905  0.45471823    -0.19500
H3390       H  0.02891826  0.58202804  0.47316121     0.16200
F3391       F  0.03354365  0.53830937  0.42583294    -0.23200
H3392       H  0.04914040  0.56587811  0.40807594     0.18000
C3393       C  0.05452717  0.72596198  0.28622364    -0.27200
C3394       C  0.04679224  0.70934259  0.29377848     0.06400
C3395       C  0.03040332  0.70166283  0.28539427     0.26000
C3396       C  0.02221886  0.71028929  0.26961643    -0.11700
C3397       C  0.03029005  0.72660077  0.26169960    -0.25700
C3398       C  0.04647795  0.73448182  0.27033170     0.36800
C3399       C  0.05615936  0.69974422  0.30994561     0.06400
F3400       F  0.02270253  0.68538822  0.29197059    -0.19500
H3401       H  0.00980352  0.70388525  0.26328722     0.16200
F3402       F  0.05446499  0.75054957  0.26359047    -0.23200
H3403       H  0.06688218  0.73238554  0.29264761     0.18000
C3404       C  0.07573320  0.69633072  0.30984988     0.26000
C3405       C  0.08408777  0.68595288  0.32436976    -0.11700
C3406       C  0.07323916  0.67826716  0.33923649    -0.25700
C3407       C  0.05375014  0.68295008  0.33993585     0.36900
C3408       C  0.04545581  0.69344082  0.32538933    -0.27400
F3409       F  0.08669899  0.70212969  0.29521424    -0.19500
H3410       H  0.09912612  0.68311359  0.32352918     0.16200
F3411       F  0.04239745  0.67790767  0.35445262    -0.23200
H3412       H  0.03047818  0.69657990  0.32615671     0.18000
C3413       C  0.88356501  0.43336537  0.65642181    -0.27200
C3414       C  0.87241842  0.42973795  0.67246483     0.06400
C3415       C  0.86851444  0.41097813  0.67751035     0.26000
C3416       C  0.87649512  0.39615940  0.66736207    -0.11700
C3417       C  0.88830069  0.39970795  0.65183903    -0.25700
C3418       C  0.89148871  0.41843063  0.64612520     0.36800
C3419       C  0.86453163  0.44533247  0.68388896     0.06400
F3420       F  0.85685815  0.40698761  0.69222430    -0.19500
H3421       H  0.87360512  0.38180569  0.67175081     0.16200
F3422       F  0.90296056  0.42230688  0.63125320    -0.23200
H3423       H  0.88651560  0.44775039  0.65219922     0.18000
C3424       C  0.86761337  0.44608462  0.70352731     0.26000
C3425       C  0.85778848  0.45906734  0.71468752    -0.11700
C3426       C  0.84462342  0.47134441  0.70645068    -0.25700
C3427       C  0.84257944  0.47146636  0.68663387     0.36900
C3428       C  0.85254197  0.45859984  0.67547691    -0.27400
F3429       F  0.87965273  0.43381132  0.71196828    -0.19500
H3430       H  0.85970201  0.45879935  0.72987031     0.16200
F3431       F  0.83054603  0.48367660  0.67808702    -0.23200
H3432       H  0.85015967  0.45836125  0.66035731     0.18000
C3433       C  0.93743406  0.39887946  0.57061983    -0.27200
C3434       C  0.94791022  0.41438659  0.57736919     0.06400
C3435       C  0.94868812  0.41771525  0.59694924     0.26000
C3436       C  0.93930584  0.40566086  0.60948105    -0.11700
C3437       C  0.92885931  0.39023063  0.60272900    -0.25700
C3438       C  0.92804462  0.38680474  0.58321088     0.36800
C3439       C  0.95725797  0.42754747  0.56397842     0.06400
F3440       F  0.95801949  0.43297152  0.60390937    -0.19500
H3441       H  0.94003540  0.40845205  0.62451698     0.16200
F3442       F  0.91847728  0.37164290  0.57638532    -0.23200
H3443       H  0.93665021  0.39607669  0.55559223     0.18000
C3444       C  0.97662169  0.43199086  0.56557098     0.26000
C3445       C  0.98488247  0.44539711  0.55357526    -0.11700
C3446       C  0.97398651  0.45471254  0.53983201    -0.25700
C3447       C  0.95467276  0.44979804  0.53797174     0.36900
C3448       C  0.94651549  0.43632302  0.54987387    -0.27400
F3449       F  0.98756503  0.42330206  0.57868260    -0.19500
H3450       H  0.99976244  0.44870015  0.55527326     0.16200
F3451       F  0.94352392  0.45803115  0.52472715    -0.23200
H3452       H  0.93159505  0.43306929  0.54838628     0.18000
C3453       C  0.95288374  0.32691379  0.67266432    -0.27200
C3454       C  0.94087810  0.31854514  0.68607046     0.06400
C3455       C  0.92122373  0.32064665  0.68378297     0.26000
C3456       C  0.91397329  0.33132940  0.66880706    -0.11700
C3457       C  0.92594416  0.34053728  0.65572583    -0.25700
C3458       C  0.94571697  0.33782399  0.65780459     0.36800
C3459       C  0.94914344  0.30898705  0.70300039     0.06400
F3460       F  0.90897398  0.31349321  0.69669987    -0.19500
H3461       H  0.89878754  0.33325735  0.66799286     0.16200
F3462       F  0.95856502  0.34628003  0.64647189    -0.23200
H3463       H  0.96808400  0.32544077  0.67400759     0.18000
C3464       C  0.94247545  0.29136955  0.70941142     0.26000
C3465       C  0.95037582  0.28295124  0.72552686    -0.11700
C3466       C  0.96538015  0.29163167  0.73535120    -0.25700
C3467       C  0.97217588  0.30912274  0.72881350     0.36900
C3468       C  0.96405753  0.31768656  0.71294691    -0.27400
F3469       F  0.92879476  0.28194241  0.69976586    -0.19500
H3470       H  0.94504356  0.26935942  0.73006696     0.16200
F3471       F  0.98638988  0.31821803  0.73800499    -0.23200
H3472       H  0.96936425  0.33132325  0.70851368     0.18000
C3473       C  0.94788348  0.47208691  0.41206204    -0.27200
C3474       C  0.92898691  0.46862034  0.41719136     0.06400
C3475       C  0.92281763  0.47412535  0.43525617     0.26000
C3476       C  0.93548177  0.48226718  0.44808999    -0.11700
C3477       C  0.95459880  0.48517064  0.44325955    -0.25700
C3478       C  0.96058572  0.48029477  0.42488121     0.36800
C3479       C  0.91603930  0.45851223  0.40403631     0.06400
F3480       F  0.90450732  0.47163367  0.44053250    -0.19500
H3481       H  0.93030608  0.48602860  0.46198767     0.16200
F3482       F  0.97881117  0.48288327  0.41939223    -0.23200
H3483       H  0.95299770  0.46787425  0.39827038     0.18000
C3484       C  0.91413425  0.46412290  0.38507951     0.26000
C3485       C  0.90194920  0.45431527  0.37291794    -0.11700
C3486       C  0.89130587  0.43881160  0.37940299    -0.25700
C3487       C  0.89324779  0.43323140  0.39838519     0.36900
C3488       C  0.90557145  0.44291848  0.41046296    -0.27400
F3489       F  0.92361230  0.47941906  0.37845008    -0.19500
H3490       H  0.90076061  0.45894815  0.35839483     0.16200
F3491       F  0.88264824  0.41899152  0.40561912    -0.23200
H3492       H  0.90689401  0.43823511  0.42496248     0.18000
C3493       C  0.82172189  0.61203657  0.65195482    -0.27200
C3494       C  0.82679305  0.59295808  0.65333807     0.06400
C3495       C  0.84019466  0.58573034  0.64044228     0.26000
C3496       C  0.84776140  0.59721953  0.62616707    -0.11700
C3497       C  0.84206821  0.61605759  0.62440113    -0.25700
C3498       C  0.82932714  0.62349877  0.63777743     0.36800
C3499       C  0.81775633  0.58062929  0.66788688     0.06400
F3500       F  0.84599897  0.56754523  0.64162688    -0.19500
H3501       H  0.85760299  0.59121419  0.61610848     0.16200
F3502       F  0.82416885  0.64191356  0.63713667    -0.23200
H3503       H  0.81145855  0.61801771  0.66159024     0.18000
C3504       C  0.81597183  0.58647501  0.68684689     0.26000
C3505       C  0.80809186  0.57437574  0.70040680    -0.11700
C3506       C  0.80189569  0.55615172  0.69545552    -0.25700
C3507       C  0.80298348  0.55064384  0.67632294     0.36900
C3508       C  0.81073656  0.56278241  0.66278648    -0.27400
F3509       F  0.82265567  0.60353055  0.69250808    -0.19500
H3510       H  0.80758475  0.57903341  0.71497449     0.16200
F3511       F  0.79689177  0.53337575  0.67063855    -0.23200
H3512       H  0.81136751  0.55812681  0.64822318     0.18000
C3513       C  0.89037068  0.59052567  0.54365876    -0.27200
C3514       C  0.90896823  0.58925233  0.55062708     0.06400
C3515       C  0.91364830  0.59912099  0.56723147     0.26000
C3516       C  0.90012874  0.61019921  0.57642509    -0.11700
C3517       C  0.88151319  0.61158271  0.56949026    -0.25700
C3518       C  0.87673883  0.60144830  0.55298408     0.36800
C3519       C  0.92332834  0.57739299  0.54081674     0.06400
F3520       F  0.93124506  0.59779441  0.57481396    -0.19500
H3521       H  0.90447547  0.61800919  0.58883787     0.16200
F3522       F  0.85885983  0.60174228  0.54598084    -0.23200
H3523       H  0.88638978  0.58309285  0.53087958     0.18000
C3524       C  0.91918629  0.55866416  0.53574839     0.26000
C3525       C  0.93300003  0.54735594  0.52732421    -0.11700
C3526       C  0.95134320  0.55433838  0.52373324    -0.25700
C3527       C  0.95538261  0.57324313  0.52847528     0.36900
C3528       C  0.94149015  0.58458475  0.53688887    -0.27400
F3529       F  0.90198313  0.55100701  0.53958585    -0.19500
H3530       H  0.92933534  0.53291100  0.52391479     0.16200
F3531       F  0.97271372  0.58081955  0.52509632    -0.23200
H3532       H  0.94494665  0.59906351  0.54037801     0.18000
C3533       C  0.07545892  0.43392179  0.47267751    -0.27200
C3534       C  0.07869440  0.43372254  0.45309806     0.06400
C3535       C  0.06850381  0.44623890  0.44159709     0.26000
C3536       C  0.05556187  0.45885005  0.44959387    -0.11700
C3537       C  0.05230588  0.45922121  0.46924657    -0.25700
C3538       C  0.06235744  0.44641760  0.48070981     0.36800
C3539       C  0.09267327  0.42047628  0.44472364     0.06400
F3540       F  0.07140118  0.44659382  0.42263862    -0.19500
H3541       H  0.04812679  0.46842249  0.44029594     0.16200
F3542       F  0.05950957  0.44581390  0.49965624    -0.23200
H3543       H  0.08299444  0.42421819  0.48176293     0.18000
C3544       C  0.11163008  0.42038624  0.45081377     0.26000
C3545       C  0.12474164  0.40802381  0.44262378    -0.11700
C3546       C  0.11921979  0.39548949  0.42822649    -0.25700
C3547       C  0.10013753  0.39541747  0.42235188     0.36900
C3548       C  0.08709476  0.40786295  0.43046024    -0.27400
F3549       F  0.11758147  0.43263913  0.46432055    -0.19500
H3550       H  0.13932294  0.40848031  0.44733041     0.16200
F3551       F  0.09384102  0.38288882  0.40925946    -0.23200
H3552       H  0.07249861  0.40747994  0.42577252     0.18000
C3553       C  0.07921597  0.56956282  0.60191236    -0.27200
C3554       C  0.08714984  0.55712952  0.58866018     0.06400
C3555       C  0.10683563  0.55439536  0.58853365     0.26000
C3556       C  0.11834016  0.56381761  0.60162437    -0.11700
C3557       C  0.11044531  0.57644523  0.61471206    -0.25700
C3558       C  0.09078757  0.57932438  0.61473751     0.36800
C3559       C  0.07492075  0.54769574  0.57449405     0.06400
F3560       F  0.11488592  0.54256436  0.57579303    -0.19500
H3561       H  0.13348919  0.56150137  0.60137169     0.16200
F3562       F  0.08277613  0.59126000  0.62740352    -0.23200
H3563       H  0.06407132  0.57189578  0.60211286     0.18000
C3564       C  0.06241586  0.53314673  0.57971226     0.26000
C3565       C  0.05050045  0.52480183  0.56617820    -0.11700
C3566       C  0.05055766  0.53122663  0.54740828    -0.25700
C3567       C  0.06324646  0.54564667  0.54221346     0.36900
C3568       C  0.07544372  0.55363651  0.55561639    -0.27400
F3569       F  0.06169757  0.52711120  0.59788838    -0.19500
H3570       H  0.04078678  0.51376980  0.57047402     0.16200
F3571       F  0.06391902  0.55192160  0.52411345    -0.23200
H3572       H  0.08505111  0.56478036  0.55136022     0.18000
C3573       C  0.21238733  0.56336745  0.71572441    -0.27200
C3574       C  0.20986968  0.56044216  0.69629789     0.06400
C3575       C  0.22377076  0.55080048  0.68599976     0.26000
C3576       C  0.23946289  0.54330848  0.69522416    -0.11700
C3577       C  0.24161417  0.54530017  0.71489570    -0.25700
C3578       C  0.22810381  0.55585575  0.72502780     0.36800
C3579       C  0.19275594  0.56745761  0.68675374     0.06400
F3580       F  0.22215617  0.54864254  0.66700065    -0.19500
H3581       H  0.24974960  0.53560136  0.68693764     0.16200
F3582       F  0.22972873  0.55853865  0.74394743    -0.23200
H3583       H  0.20188981  0.57105559  0.72377030     0.18000
C3584       C  0.18086812  0.55508503  0.67675656     0.26000
C3585       C  0.16555658  0.56204392  0.66642491    -0.11700
C3586       C  0.16191081  0.58155631  0.66575202    -0.25700
C3587       C  0.17347648  0.59374413  0.67665282     0.36900
C3588       C  0.18864506  0.58670984  0.68705487    -0.27400
F3589       F  0.18424664  0.53624831  0.67679614    -0.19500
H3590       H  0.15719661  0.55199481  0.65860076     0.16200
F3591       F  0.17069221  0.61268186  0.67648115    -0.23200
H3592       H  0.19766576  0.59641270  0.69476811     0.18000
C3593       C  0.94184878  0.72125843  0.78362822    -0.27200
C3594       C  0.95331201  0.70930316  0.79458978     0.06400
C3595       C  0.97213793  0.70619987  0.78883226     0.26000
C3596       C  0.97892838  0.71410142  0.77205310    -0.11700
C3597       C  0.96734378  0.72571793  0.76096089    -0.25700
C3598       C  0.94884427  0.72959787  0.76710675     0.36800
C3599       C  0.94511390  0.69891363  0.81096479     0.06400
F3600       F  0.98403957  0.69561610  0.79948226    -0.19500
H3601       H  0.99339655  0.71133711  0.76783060     0.16200
F3602       F  0.93726675  0.74078302  0.75672789    -0.23200
H3603       H  0.92723256  0.72368071  0.78750568     0.18000
C3604       C  0.93314697  0.70779944  0.82411539     0.26000
C3605       C  0.92392953  0.69725425  0.83812636    -0.11700
C3606       C  0.92647288  0.67755652  0.83943363    -0.25700
C3607       C  0.93943705  0.66901579  0.82690524     0.36900
C3608       C  0.94836507  0.67949658  0.81279910    -0.27400
F3609       F  0.93026640  0.72670286  0.82340749    -0.19500
H3610       H  0.91467852  0.70478026  0.84755955     0.16200
F3611       F  0.94282016  0.65019532  0.82770677    -0.23200
H3612       H  0.95731469  0.67217193  0.80279640     0.18000
C3613       C  0.05600520  0.80200182  0.77982174    -0.27200
C3614       C  0.04355714  0.80712475  0.79442364     0.06400
C3615       C  0.02409465  0.80371532  0.79214996     0.26000
C3616       C  0.01729946  0.79522268  0.77563734    -0.11700
C3617       C  0.02973819  0.78993146  0.76103224    -0.25700
C3618       C  0.04923008  0.79348492  0.76328605     0.36800
C3619       C  0.05095517  0.81651854  0.81167468     0.06400
F3620       F  0.01168811  0.80823445  0.80606598    -0.19500
H3621       H  0.00224302  0.79257028  0.77440359     0.16200
F3622       F  0.06171865  0.78913875  0.74939334    -0.23200
H3623       H  0.07101881  0.80486660  0.78112423     0.18000
C3624       C  0.06610237  0.80875342  0.82184480     0.26000
C3625       C  0.07417204  0.81857826  0.83700771    -0.11700
C3626       C  0.06738077  0.83649958  0.84241781    -0.25700
C3627       C  0.05175828  0.84391686  0.83238890     0.36900
C3628       C  0.04360179  0.83394584  0.81738443    -0.27400
F3629       F  0.07344458  0.79180988  0.81680415    -0.19500
H3630       H  0.08641535  0.81234895  0.84355630     0.16200
F3631       F  0.04508008  0.86142542  0.83626321    -0.23200
H3632       H  0.03209082  0.84032392  0.80957759     0.18000
C3633       C  0.08091693  0.69009741  0.68409540    -0.27200
C3634       C  0.07343360  0.67215034  0.68015088     0.06400
C3635       C  0.05416160  0.66873463  0.68364303     0.26000
C3636       C  0.04256677  0.68308326  0.69063353    -0.11700
C3637       C  0.04987702  0.70120752  0.69438807    -0.25700
C3638       C  0.06933637  0.70449714  0.69119517     0.36800
C3639       C  0.08566411  0.65697993  0.67242773     0.06400
F3640       F  0.04637958  0.65166211  0.67965828    -0.19500
H3641       H  0.02768991  0.68003202  0.69274347     0.16200
F3642       F  0.07718194  0.72165937  0.69459022    -0.23200
H3643       H  0.09578927  0.69295367  0.68167342     0.18000
C3644       C  0.09587785  0.65954191  0.65555730     0.26000
C3645       C  0.10700138  0.64491149  0.64825065    -0.11700
C3646       C  0.10834379  0.62758802  0.65775025    -0.25700
C3647       C  0.09804408  0.62503813  0.67460590     0.36900
C3648       C  0.08681134  0.63958387  0.68178443    -0.27400
F3649       F  0.09486951  0.67608829  0.64600235    -0.19500
H3650       H  0.11495197  0.64730258  0.63539088     0.16200
F3651       F  0.09859586  0.60839658  0.68404004    -0.23200
H3652       H  0.07905652  0.63731036  0.69478762     0.18000
C3653       C  0.91403655  0.66092820  0.63530136    -0.27200
C3654       C  0.92111269  0.67797898  0.62794507     0.06400
C3655       C  0.91364107  0.68473326  0.61085222     0.26000
C3656       C  0.89897372  0.67505023  0.60183806    -0.11700
C3657       C  0.89092090  0.65871444  0.60985560    -0.25700
C3658       C  0.89897128  0.65146723  0.62652145     0.36800
C3659       C  0.93515313  0.68935594  0.63878524     0.06400
F3660       F  0.91970220  0.70129433  0.60335928    -0.19500
H3661       H  0.89360858  0.68072903  0.58870502     0.16200
F3662       F  0.89168855  0.63595185  0.63504879    -0.23200
H3663       H  0.91979417  0.65521152  0.64826132     0.18000
C3664       C  0.93252616  0.69262142  0.65822314     0.26000
C3665       C  0.94516070  0.70402868  0.66822961    -0.11700
C3666       C  0.96045174  0.71280966  0.65909008    -0.25700
C3667       C  0.96316428  0.70963589  0.63967380     0.36900
C3668       C  0.95071821  0.69784610  0.62968531    -0.27400
F3669       F  0.91730581  0.68542045  0.66745977    -0.19500
H3670       H  0.94269792  0.70638305  0.68315394     0.16200
F3671       F  0.97806390  0.71751707  0.63047783    -0.23200
H3672       H  0.95325273  0.69534984  0.61480621     0.18000
C3673       C  0.69140242  0.19446397  0.57625727    -0.27200
C3674       C  0.69162933  0.19691594  0.55666071     0.06400
C3675       C  0.68178746  0.18412100  0.54512675     0.26000
C3676       C  0.67120355  0.16950768  0.55315476    -0.11700
C3677       C  0.67000829  0.16749939  0.57294120    -0.25700
C3678       C  0.68063525  0.18005310  0.58436343     0.36800
C3679       C  0.70087383  0.21368861  0.54844597     0.06400
F3680       F  0.68202959  0.18607836  0.52604965    -0.19500
H3681       H  0.66344768  0.16050787  0.54362721     0.16200
F3682       F  0.67980883  0.17901914  0.60350259    -0.23200
H3683       H  0.69885520  0.20429576  0.58534759     0.18000
C3684       C  0.69006629  0.22695850  0.53852770     0.26000
C3685       C  0.69864757  0.24297597  0.53098102    -0.11700
C3686       C  0.71820987  0.24614040  0.53312667    -0.25700
C3687       C  0.72903367  0.23280579  0.54318622     0.36900
C3688       C  0.72033586  0.21679767  0.55088987    -0.27400
F3689       F  0.67109162  0.22462116  0.53648901    -0.19500
H3690       H  0.68985832  0.25292797  0.52342512     0.16200
F3691       F  0.74796953  0.23509748  0.54552866    -0.23200
H3692       H  0.72881333  0.20669639  0.55860920     0.18000
C3693       C  0.67817236  0.31441673  0.41859212    -0.27200
C3694       C  0.66060871  0.31961230  0.42621714     0.06400
C3695       C  0.65761072  0.31767911  0.44571947     0.26000
C3696       C  0.67231223  0.31159231  0.45748170    -0.11700
C3697       C  0.69028120  0.30720689  0.45003464    -0.25700
C3698       C  0.69285371  0.30816092  0.43029580     0.36800
C3699       C  0.64598168  0.32819094  0.41393285     0.06400
F3700       F  0.64080412  0.32267422  0.45352413    -0.19500
H3701       H  0.66977556  0.31098529  0.47255651     0.16200
F3702       F  0.70966615  0.30357070  0.42227473    -0.23200
H3703       H  0.68062937  0.31559254  0.40353172     0.18000
C3704       C  0.64981907  0.34510412  0.40433430     0.26000
C3705       C  0.63612525  0.35323678  0.39265167    -0.11700
C3706       C  0.61838643  0.34460390  0.39017156    -0.25700
C3707       C  0.61444608  0.32775151  0.40001586     0.36900
C3708       C  0.62813183  0.31970940  0.41185189    -0.27400
F3709       F  0.66679570  0.35386737  0.40644133    -0.19500
H3710       H  0.63961060  0.36608834  0.38515952     0.16200
F3711       F  0.59730178  0.31919912  0.39847335    -0.23200
H3712       H  0.62488177  0.30674323  0.41926071     0.18000
C3713       C  0.82238915  0.31660312  0.57131356    -0.27200
C3714       C  0.82467275  0.33591132  0.57529945     0.06400
C3715       C  0.81214209  0.34879475  0.56687594     0.26000
C3716       C  0.79824350  0.34254019  0.55419494    -0.11700
C3717       C  0.79635568  0.32327668  0.54961686    -0.25700
C3718       C  0.80838189  0.31029598  0.55872380     0.36800
C3719       C  0.84072513  0.34255211  0.58735706     0.06400
F3720       F  0.81328650  0.36747729  0.57093212    -0.19500
H3721       H  0.78906070  0.35292355  0.54777781     0.16200
F3722       F  0.80701389  0.29153711  0.55516603    -0.23200
H3723       H  0.83188433  0.30637089  0.57751856     0.18000
C3724       C  0.84482294  0.33394972  0.60478044     0.26000
C3725       C  0.86065940  0.33959967  0.61532325    -0.11700
C3726       C  0.87289115  0.35390298  0.60878397    -0.25700
C3727       C  0.86849515  0.36279564  0.59152799     0.36900
C3728       C  0.85264248  0.35713588  0.58100861    -0.27400
F3729       F  0.83338789  0.32021673  0.61176143    -0.19500
H3730       H  0.86325545  0.33278683  0.62875058     0.16200
F3731       F  0.87987545  0.37638234  0.58425427    -0.23200
H3732       H  0.85000825  0.36381758  0.56751296     0.18000
C3733       C  0.68149847  0.34757490  0.56496747    -0.27200
C3734       C  0.67901979  0.36709707  0.56304173     0.06400
C3735       C  0.68821891  0.37645124  0.54800608     0.26000
C3736       C  0.70011024  0.36650796  0.53568584    -0.11700
C3737       C  0.70265741  0.34701646  0.53779720    -0.25700
C3738       C  0.69297359  0.33759659  0.55244819     0.36800
C3739       C  0.66837192  0.37766630  0.57779595     0.06400
F3740       F  0.68562738  0.39518080  0.54511513    -0.19500
H3741       H  0.70713504  0.37400586  0.52434687     0.16200
F3742       F  0.69514948  0.31878074  0.55520467    -0.23200
H3743       H  0.67506254  0.34004195  0.57661995     0.18000
C3744       C  0.65134780  0.37068267  0.58557947     0.26000
C3745       C  0.64297331  0.37968965  0.60110775    -0.11700
C3746       C  0.65130134  0.39584213  0.60908731    -0.25700
C3747       C  0.66757501  0.40349039  0.60041996     0.36900
C3748       C  0.67612470  0.39429954  0.58526825    -0.27400
F3749       F  0.64284276  0.35510988  0.57827394    -0.19500
H3750       H  0.63023413  0.37372322  0.60712161     0.16200
F3751       F  0.67524752  0.42002103  0.60638629    -0.23200
H3752       H  0.68921824  0.40001315  0.57973440     0.18000
C3753       C  0.81969472  0.39781212  0.41391026    -0.27200
C3754       C  0.82237153  0.37839757  0.41669370     0.06400
C3755       C  0.83648782  0.36911797  0.40608494     0.26000
C3756       C  0.84676011  0.37886788  0.39225477    -0.11700
C3757       C  0.84321007  0.39796738  0.38880661    -0.25700
C3758       C  0.83011080  0.40754958  0.40026984     0.36800
C3759       C  0.80950068  0.36775648  0.42954677     0.06400
F3760       F  0.84010738  0.35053192  0.40879804    -0.19500
H3761       H  0.85681806  0.37126083  0.38365493     0.16200
F3762       F  0.82703616  0.42629217  0.39793658    -0.23200
H3763       H  0.80893503  0.40535680  0.42172075     0.18000
C3764       C  0.80431887  0.37482655  0.44743322     0.26000
C3765       C  0.79162476  0.36482628  0.45891965    -0.11700
C3766       C  0.78391381  0.34751976  0.45292745    -0.25700
C3767       C  0.78910101  0.34053980  0.43496042     0.36900
C3768       C  0.80155906  0.35063700  0.42346443    -0.27400
F3769       F  0.81184530  0.39117700  0.45404747    -0.19500
H3770       H  0.78808693  0.37051773  0.47267072     0.16200
F3771       F  0.78219725  0.32391778  0.42832345    -0.23200
H3772       H  0.80480564  0.34509878  0.40957848     0.18000
C3773       C  0.17907976  0.90156219  0.65097971    -0.27200
C3774       C  0.17116727  0.91950844  0.65354292     0.06400
C3775       C  0.15630711  0.92520984  0.64158701     0.26000
C3776       C  0.14983232  0.91326795  0.62716967    -0.11700
C3777       C  0.15802162  0.89545382  0.62437911    -0.25700
C3778       C  0.17255070  0.88959316  0.63668979     0.36800
C3779       C  0.17875547  0.93221634  0.66847162     0.06400
F3780       F  0.14793013  0.94225288  0.64393617    -0.19500
H3781       H  0.13869139  0.91817401  0.61790157     0.16200
F3782       F  0.18031695  0.87217962  0.63516130    -0.23200
H3783       H  0.19056752  0.89686081  0.65993532     0.18000
C3784       C  0.18153179  0.92570355  0.68703419     0.26000
C3785       C  0.18899187  0.93769711  0.70087797    -0.11700
C3786       C  0.19373753  0.95649815  0.69661161    -0.25700
C3787       C  0.19102324  0.96296192  0.67795286     0.36900
C3788       C  0.18369453  0.95089420  0.66409698    -0.27400
F3789       F  0.17644368  0.90790904  0.69197233    -0.19500
H3790       H  0.19059935  0.93233208  0.71510571     0.16200
F3791       F  0.19516578  0.98100395  0.67304389    -0.23200
H3792       H  0.18195049  0.95615616  0.64984416     0.18000
C3793       C  0.07600300  0.80709317  0.65255863    -0.27200
C3794       C  0.06830815  0.81874933  0.63858299     0.06400
C3795       C  0.04901840  0.81702743  0.63399182     0.26000
C3796       C  0.03754407  0.80409695  0.64368870    -0.11700
C3797       C  0.04518568  0.79268793  0.65802607    -0.25700
C3798       C  0.06465827  0.79414344  0.66214805     0.36800
C3799       C  0.08096849  0.83183548  0.62834015     0.06400
F3800       F  0.04121825  0.82818135  0.62052156    -0.19500
H3801       H  0.02260027  0.80336357  0.64033301     0.16200
F3802       F  0.07284267  0.78292541  0.67534337    -0.23200
H3803       H  0.09095076  0.80790466  0.65591432     0.18000
C3804       C  0.09154526  0.84555390  0.63815194     0.26000
C3805       C  0.10574841  0.85576644  0.62886276    -0.11700
C3806       C  0.10977627  0.85215326  0.60980896    -0.25700
C3807       C  0.09845311  0.83919331  0.59976819     0.36900
C3808       C  0.08413264  0.82918460  0.60898547    -0.27400
F3809       F  0.08849368  0.84861917  0.65683643    -0.19500
H3810       H  0.11422756  0.86578654  0.63677227     0.16200
F3811       F  0.10150111  0.83592853  0.58111568    -0.23200
H3812       H  0.07611083  0.81868908  0.60121954     0.18000
C3813       C  0.08442322  0.95869816  0.54050431    -0.27200
C3814       C  0.08003326  0.93956868  0.54343924     0.06400
C3815       C  0.06237258  0.93275642  0.53717276     0.26000
C3816       C  0.04938056  0.94486201  0.52854685    -0.11700
C3817       C  0.05360601  0.96407456  0.52578254    -0.25700
C3818       C  0.07144822  0.97083321  0.53174484     0.36800
C3819       C  0.09365875  0.92683960  0.55326891     0.06400
F3820       F  0.05772327  0.91427327  0.53910691    -0.19500
H3821       H  0.03589987  0.93909637  0.52404693     0.16200
F3822       F  0.07629517  0.98922525  0.52951615    -0.23200
H3823       H  0.09781090  0.96438613  0.54536197     0.18000
C3824       C  0.11292079  0.92625665  0.54815329     0.26000
C3825       C  0.12531903  0.91370044  0.55710874    -0.11700
C3826       C  0.11884816  0.90149330  0.57136694    -0.25700
C3827       C  0.09963746  0.90223770  0.57662263     0.36900
C3828       C  0.08729465  0.91483785  0.56774639    -0.27400
F3829       F  0.11966244  0.93735273  0.53405865    -0.19500
H3830       H  0.14002646  0.91345484  0.55280972     0.16200
F3831       F  0.09247014  0.89021554  0.58970780    -0.23200
H3832       H  0.07261671  0.91510824  0.57214160     0.18000
C3833       C  0.13670856  0.09288022  0.66035190    -0.27200
C3834       C  0.12582453  0.08207936  0.67311711     0.06400
C3835       C  0.10650994  0.08660130  0.67526366     0.26000
C3836       C  0.09878800  0.10217229  0.66589567    -0.11700
C3837       C  0.10990035  0.11325074  0.65373540    -0.25700
C3838       C  0.12876396  0.10808227  0.65051201     0.36800
C3839       C  0.13498641  0.06711814  0.68494463     0.06400
F3840       F  0.09504365  0.07605333  0.68645881    -0.19500
H3841       H  0.08407950  0.10573761  0.66828700     0.16200
F3842       F  0.13985033  0.11844979  0.63878380    -0.23200
H3843       H  0.15165187  0.09011817  0.65853444     0.18000
C3844       C  0.14913579  0.05529521  0.67746569     0.26000
C3845       C  0.15920269  0.04305154  0.68924593    -0.11700
C3846       C  0.15515956  0.04182550  0.70867737    -0.25700
C3847       C  0.14018595  0.05263245  0.71595305     0.36900
C3848       C  0.13047946  0.06533708  0.70428290    -0.27400
F3849       F  0.15334179  0.05553996  0.65875659    -0.19500
H3850       H  0.17037242  0.03458458  0.68312276     0.16200
F3851       F  0.13557229  0.05172068  0.73453935    -0.23200
H3852       H  0.11992349  0.07434684  0.71066160     0.18000
C3853       C  0.05800499  0.12104603  0.57509021    -0.27200
C3854       C  0.04980804  0.10402508  0.58130509     0.06400
C3855       C  0.05186555  0.09887174  0.60040828     0.26000
C3856       C  0.06190604  0.11047637  0.61291563    -0.11700
C3857       C  0.07006975  0.12736841  0.60665189    -0.25700
C3858       C  0.06798814  0.13269494  0.58768130     0.36800
C3859       C  0.04035476  0.09107657  0.56763235     0.06400
F3860       F  0.04486077  0.08223280  0.60682130    -0.19500
H3861       H  0.06351459  0.10618150  0.62751548     0.16200
F3862       F  0.07569197  0.14906169  0.58135005    -0.23200
H3863       H  0.05669649  0.12527656  0.56044985     0.18000
C3864       C  0.02230241  0.08337297  0.57122156     0.26000
C3865       C  0.01449055  0.06982871  0.55898992    -0.11700
C3866       C  0.02454912  0.06364328  0.54301099    -0.25700
C3867       C  0.04219671  0.07210061  0.53898177     0.36900
C3868       C  0.04992411  0.08564068  0.55115043    -0.27400
F3869       F  0.01223533  0.08891568  0.58657184    -0.19500
H3870       H  0.00079240  0.06380012  0.56231814     0.16200
F3871       F  0.05209716  0.06726981  0.52327976    -0.23200
H3872       H  0.06374502  0.09148152  0.54797470     0.18000
C3873       C  0.05048215  0.17847318  0.68434129    -0.27200
C3874       C  0.05815309  0.19592870  0.68975191     0.06400
C3875       C  0.07424341  0.20265778  0.68018535     0.26000
C3876       C  0.08257033  0.19198483  0.66571097    -0.11700
C3877       C  0.07511866  0.17423544  0.66040619    -0.25700
C3878       C  0.05883126  0.16772384  0.67002983     0.36800
C3879       C  0.04998389  0.20624716  0.70619175     0.06400
F3880       F  0.08265207  0.21903085  0.68559346    -0.19500
H3881       H  0.09538621  0.19746882  0.65953278     0.16200
F3882       F  0.05132804  0.15051317  0.66611617    -0.23200
H3883       H  0.03813523  0.17292525  0.69153125     0.18000
C3884       C  0.04512874  0.22546102  0.70510785     0.26000
C3885       C  0.03717478  0.23469060  0.72074953    -0.11700
C3886       C  0.03367229  0.22492193  0.73769211    -0.25700
C3887       C  0.03870391  0.20573111  0.73876664     0.36900
C3888       C  0.04675026  0.19659024  0.72320913    -0.27400
F3889       F  0.04738806  0.23513451  0.68872805    -0.19500
H3890       H  0.03326612  0.24938470  0.71942270     0.16200
F3891       F  0.03606903  0.19577318  0.75492709    -0.23200
H3892       H  0.05055443  0.18186008  0.72448592     0.18000
C3893       C  0.07439560  0.08048813  0.39487280    -0.27200
C3894       C  0.07952390  0.06378916  0.40422250     0.06400
C3895       C  0.09694273  0.05529670  0.39990725     0.26000
C3896       C  0.10934691  0.06380314  0.38717347    -0.11700
C3897       C  0.10463675  0.08089905  0.37841295    -0.25700
C3898       C  0.08689777  0.08907002  0.38210353     0.36800
C3899       C  0.06707554  0.05544784  0.41886256     0.06400
F3900       F  0.10200678  0.03876474  0.40809687    -0.19500
H3901       H  0.12293946  0.05726436  0.38458610     0.16200
F3902       F  0.08162349  0.10522202  0.37330061    -0.23200
H3903       H  0.06092547  0.08711552  0.39784013     0.18000
C3904       C  0.07418886  0.05166396  0.43700689     0.26000
C3905       C  0.06283872  0.04279276  0.45050258    -0.11700
C3906       C  0.04406528  0.03760753  0.44630835    -0.25700
C3907       C  0.03675801  0.04200081  0.42825427     0.36900
C3908       C  0.04820597  0.05083905  0.41471928    -0.27400
F3909       F  0.09209584  0.05680391  0.44177123    -0.19500
H3910       H  0.06881548  0.04002792  0.46431281     0.16200
F3911       F  0.01857241  0.03785997  0.42360854    -0.23200
H3912       H  0.04242931  0.05380434  0.40086055     0.18000
C3913       C  0.18854754  0.08571871  0.31252228    -0.27200
C3914       C  0.18871617  0.06613426  0.30984555     0.06400
C3915       C  0.17378559  0.05529285  0.31720651     0.26000
C3916       C  0.15933270  0.06383246  0.32759743    -0.11700
C3917       C  0.15946789  0.08343495  0.33104400    -0.25700
C3918       C  0.17413857  0.09429835  0.32289462     0.36800
C3919       C  0.20495646  0.05708973  0.30018860     0.06400
F3920       F  0.17322008  0.03634809  0.31448178    -0.19500
H3921       H  0.14853464  0.05468733  0.33319375     0.16200
F3922       F  0.17505706  0.11321904  0.32573477    -0.23200
H3923       H  0.20000321  0.09436395  0.30715587     0.18000
C3924       C  0.21178784  0.06408910  0.28290291     0.26000
C3925       C  0.22774124  0.05607380  0.27448339    -0.11700
C3926       C  0.23704517  0.04078240  0.28297649    -0.25700
C3927       C  0.23004374  0.03359700  0.30014568     0.36900
C3928       C  0.21423290  0.04178579  0.30868232    -0.27400
F3929       F  0.20285206  0.07847635  0.27398879    -0.19500
H3930       H  0.23268007  0.06169507  0.26113787     0.16200
F3931       F  0.23878095  0.01904771  0.30899695    -0.23200
H3932       H  0.20944618  0.03638621  0.32217284     0.18000
C3933       C  0.92381093  0.87010700  0.65816788    -0.27200
C3934       C  0.91780155  0.85663444  0.67149266     0.06400
C3935       C  0.89974674  0.85873043  0.67970040     0.26000
C3936       C  0.88801530  0.87370213  0.67443927    -0.11700
C3937       C  0.89383585  0.88679395  0.66073441    -0.25700
C3938       C  0.91193895  0.88493251  0.65271179     0.36800
C3939       C  0.93022061  0.84037654  0.67656460     0.06400
F3940       F  0.89307083  0.84592007  0.69229143    -0.19500
H3941       H  0.87407223  0.87473570  0.68070747     0.16200
F3942       F  0.91837881  0.89768948  0.63994423    -0.23200
H3943       H  0.93780667  0.86923633  0.65200957     0.18000
C3944       C  0.93994529  0.83012684  0.66255545     0.26000
C3945       C  0.95131626  0.81475667  0.66747168    -0.11700
C3946       C  0.95324413  0.80907614  0.68643039    -0.25700
C3947       C  0.94340665  0.81925746  0.70042743     0.36900
C3948       C  0.93222288  0.83477593  0.69551896    -0.27400
F3949       F  0.93814365  0.83463198  0.64400812    -0.19500
H3950       H  0.95864605  0.80729140  0.65631762     0.16200
F3951       F  0.94453318  0.81430994  0.71890919    -0.23200
H3952       H  0.92521827  0.84254235  0.70666860     0.18000
C3953       C  0.91717751  0.96304880  0.61144642    -0.27200
C3954       C  0.91848249  0.95590232  0.59298229     0.06400
C3955       C  0.90792453  0.93975743  0.58815868     0.26000
C3956       C  0.89622305  0.93109587  0.60149274    -0.11700
C3957       C  0.89463858  0.93834508  0.61989757    -0.25700
C3958       C  0.90545090  0.95435646  0.62483539     0.36800
C3959       C  0.93127286  0.96487596  0.57894788     0.06400
F3960       F  0.90856243  0.93259000  0.57037831    -0.19500
H3961       H  0.88809289  0.91887824  0.59719592     0.16200
F3962       F  0.90522745  0.96126964  0.64271795    -0.23200
H3963       H  0.92553136  0.97519559  0.61559926     0.18000
C3964       C  0.93041962  0.98431432  0.57507791     0.26000
C3965       C  0.94237131  0.99235631  0.56144162    -0.11700
C3966       C  0.95540099  0.98118470  0.55141125    -0.25700
C3967       C  0.95630524  0.96172439  0.55555876     0.36900
C3968       C  0.94440403  0.95378277  0.56914912    -0.27400
F3969       F  0.91765595  0.99542004  0.58407336    -0.19500
H3970       H  0.94125302  0.00730890  0.55858881     0.16200
F3971       F  0.96872698  0.95021863  0.54658758    -0.23200
H3972       H  0.94551579  0.93884178  0.57210283     0.18000
C3973       C  0.81756904  0.93442965  0.69437718    -0.27200
C3974       C  0.81183606  0.95293746  0.69049534     0.06400
C3975       C  0.82213107  0.96349721  0.67719066     0.26000
C3976       C  0.83742380  0.95546747  0.66761025    -0.11700
C3977       C  0.84301375  0.93669289  0.67105529    -0.25700
C3978       C  0.83262942  0.92624701  0.68457481     0.36800
C3979       C  0.79457272  0.96078927  0.69956102     0.06400
F3980       F  0.81661748  0.98118507  0.67241620    -0.19500
H3981       H  0.84390521  0.96379660  0.65662294     0.16200
F3982       F  0.83621627  0.90770996  0.68760424    -0.23200
H3983       H  0.80995849  0.92601432  0.70464415     0.18000
C3984       C  0.77763317  0.95025552  0.70037006     0.26000
C3985       C  0.76140892  0.95792091  0.70867252    -0.11700
C3986       C  0.76161478  0.97633984  0.71592696    -0.25700
C3987       C  0.77850484  0.98689208  0.71507941     0.36900
C3988       C  0.79481261  0.97909917  0.70713320    -0.27400
F3989       F  0.77654914  0.93278454  0.69258734    -0.19500
H3990       H  0.74853794  0.94959149  0.70905988     0.16200
F3991       F  0.77942420  0.00457649  0.72239722    -0.23200
H3992       H  0.80771628  0.98737925  0.70700058     0.18000
C3993       C  0.90307180  0.10838433  0.45637654    -0.27200
C3994       C  0.90823768  0.09176269  0.44701607     0.06400
C3995       C  0.90029563  0.08774736  0.42925595     0.26000
C3996       C  0.88726470  0.10013447  0.42111410    -0.11700
C3997       C  0.88212341  0.11691344  0.43035502    -0.25700
C3998       C  0.89036312  0.12100006  0.44808744     0.36800
C3999       C  0.92207311  0.07879552  0.45576504     0.06400
F4000       F  0.90489637  0.07166279  0.41993832    -0.19500
H4001       H  0.88104353  0.09642204  0.40763247     0.16200
F4002       F  0.88683664  0.13748866  0.45714620    -0.23200
H4003       H  0.90928300  0.11181628  0.46995459     0.18000
C4004       C  0.93907496  0.07444387  0.44649611     0.26000
C4005       C  0.95194643  0.06198026  0.45471430    -0.11700
C4006       C  0.94824235  0.05379716  0.47242997    -0.25700
C4007       C  0.93129450  0.05833140  0.48181061     0.36900
C4008       C  0.91835428  0.07076359  0.47351334    -0.27400
F4009       F  0.94342346  0.08260293  0.42970010    -0.19500
H4010       H  0.96500964  0.05894000  0.44731741     0.16200
F4011       F  0.92697578  0.05034532  0.49868752    -0.23200
H4012       H  0.90527513  0.07394692  0.48081808     0.18000
C4013       C  0.81115797  0.19652677  0.42528487    -0.27200
C4014       C  0.80956791  0.19785937  0.44498972     0.06400
C4015       C  0.81725004  0.18337854  0.45616340     0.26000
C4016       C  0.82765699  0.16878309  0.44783542    -0.11700
C4017       C  0.83042240  0.16812546  0.42810392    -0.25700
C4018       C  0.82113494  0.18176191  0.41691854     0.36800
C4019       C  0.80014248  0.21455120  0.45355445     0.06400
F4020       F  0.81464677  0.18325801  0.47516294    -0.19500
H4021       H  0.83354819  0.15830788  0.45712246     0.16200
F4022       F  0.82262939  0.18144656  0.39779090    -0.23200
H4023       H  0.80517135  0.20731953  0.41628660     0.18000
C4024       C  0.80854147  0.22459026  0.46858254     0.26000
C4025       C  0.79976649  0.24066034  0.47597715    -0.11700
C4026       C  0.78269926  0.24733138  0.46829704    -0.25700
C4027       C  0.77445817  0.23743172  0.45309547     0.36900
C4028       C  0.78305443  0.22120010  0.44593964    -0.27400
F4029       F  0.82558161  0.21933316  0.47567488    -0.19500
H4030       H  0.80652972  0.24809683  0.48753838     0.16200
F4031       F  0.75784911  0.24313719  0.44536721    -0.23200
H4032       H  0.77627157  0.21374419  0.43440227     0.18000
C4033       C  0.93081286  0.90638095  0.42076011    -0.27200
C4034       C  0.94775263  0.91532358  0.41538290     0.06400
C4035       C  0.95577079  0.91085599  0.39777626     0.26000
C4036       C  0.94689212  0.89786526  0.38574504    -0.11700
C4037       C  0.92974053  0.88915841  0.39090314    -0.25700
C4038       C  0.92177537  0.89353283  0.40860495     0.36800
C4039       C  0.95694623  0.92936377  0.42807980     0.06400
F4040       F  0.97234714  0.91889246  0.39232021    -0.19500
H4041       H  0.95331028  0.89482672  0.37219056     0.16200
F4042       F  0.90553798  0.88506250  0.41438972    -0.23200
H4043       H  0.92446280  0.90954597  0.43431989     0.18000
C4044       C  0.95991124  0.94803738  0.42210904     0.26000
C4045       C  0.96845049  0.96123122  0.43418662    -0.11700
C4046       C  0.97432097  0.95612894  0.45249599    -0.25700
C4047       C  0.97152073  0.93726993  0.45834072     0.36900
C4048       C  0.96280370  0.92414871  0.44627894    -0.27400
F4049       F  0.95405922  0.95366007  0.40474382    -0.19500
H4050       H  0.97025050  0.97556009  0.42922126     0.16200
F4051       F  0.97707816  0.93142156  0.47572869    -0.23200
H4052       H  0.96074086  0.90980036  0.45110595     0.18000
C4053       C  0.95264455  0.83201152  0.31629321    -0.27200
C4054       C  0.94241605  0.81681718  0.30862830     0.06400
C4055       C  0.92524347  0.81160791  0.31714848     0.26000
C4056       C  0.91820245  0.82184326  0.33250255    -0.11700
C4057       C  0.92817020  0.83740982  0.34012000    -0.25700
C4058       C  0.94551361  0.84244409  0.33148732     0.36800
C4059       C  0.94915854  0.80731990  0.29110119     0.06400
F4060       F  0.91449945  0.79750456  0.30977547    -0.19500
H4061       H  0.90422685  0.81816872  0.33749688     0.16200
F4062       F  0.95506791  0.85822284  0.33670422    -0.23200
H4063       H  0.96594916  0.83630896  0.31001240     0.18000
C4064       C  0.95521283  0.81800032  0.27546982     0.26000
C4065       C  0.96225220  0.80909138  0.25932719    -0.11700
C4066       C  0.96323032  0.78931994  0.25819808    -0.25700
C4067       C  0.95641716  0.77858619  0.27353994     0.36900
C4068       C  0.94958855  0.78754443  0.28982400    -0.27400
F4069       F  0.95411954  0.83710658  0.27566921    -0.19500
H4070       H  0.96707208  0.81777192  0.24769531     0.16200
F4071       F  0.95688812  0.75945990  0.27314353    -0.23200
H4072       H  0.94502172  0.77898382  0.30164216     0.18000
C4073       C  0.69560598  0.72105582  0.47137632    -0.27200
C4074       C  0.70104983  0.71390603  0.45362396     0.06400
C4075       C  0.71551682  0.72343045  0.44365692     0.26000
C4076       C  0.72454244  0.73919864  0.45159603    -0.11700
C4077       C  0.71878751  0.74639900  0.46916026    -0.25700
C4078       C  0.70404128  0.73725891  0.47888757     0.36800
C4079       C  0.69071132  0.69733765  0.44539786     0.06400
F4080       F  0.72038660  0.71818457  0.42587851    -0.19500
H4081       H  0.73566835  0.74617027  0.44370110     0.16200
F4082       F  0.69800577  0.74370974  0.49591047    -0.23200
H4083       H  0.68470915  0.71409322  0.47957147     0.18000
C4084       C  0.69995706  0.68311098  0.43496633     0.26000
C4085       C  0.68954599  0.66858119  0.42629964    -0.11700
C4086       C  0.66971326  0.66751072  0.42829237    -0.25700
C4087       C  0.66084901  0.68077863  0.44022723     0.36900
C4088       C  0.67108570  0.69564905  0.44815744    -0.27400
F4089       F  0.71909281  0.68295506  0.43335744    -0.19500
H4090       H  0.69725423  0.65837906  0.41805819     0.16200
F4091       F  0.64190543  0.67998681  0.44341088    -0.23200
H4092       H  0.66339916  0.70616836  0.45613057     0.18000
C4093       C  0.79920788  0.71274447  0.52761973    -0.27200
C4094       C  0.80216091  0.71093009  0.54711696     0.06400
C4095       C  0.79678470  0.72579038  0.55914500     0.26000
C4096       C  0.78849011  0.74208494  0.55171356    -0.11700
C4097       C  0.78556451  0.74397406  0.53214672    -0.25700
C4098       C  0.79097397  0.72901705  0.52016034     0.36800
C4099       C  0.81167707  0.69392117  0.55467441     0.06400
F4100       F  0.80015702  0.72483554  0.57800559    -0.19500
H4101       H  0.78462558  0.75336423  0.56127808     0.16200
F4102       F  0.78807136  0.72990720  0.50122612    -0.23200
H4103       H  0.80324217  0.70145294  0.51813287     0.18000
C4104       C  0.80370994  0.68348354  0.56951786     0.26000
C4105       C  0.81368748  0.66853766  0.57763917    -0.11700
C4106       C  0.83192313  0.66357949  0.57113781    -0.25700
C4107       C  0.83940789  0.67369154  0.55562821     0.36900
C4108       C  0.82931740  0.68851857  0.54746539    -0.27400
F4109       F  0.78636923  0.68795803  0.57643238    -0.19500
H4110       H  0.80719934  0.66174591  0.58959804     0.16200
F4111       F  0.85703634  0.66997876  0.54900003    -0.23200
H4112       H  0.83571728  0.69639226  0.53600989     0.18000
C4113       C  0.66597755  0.81656925  0.56210505    -0.27200
C4114       C  0.67083896  0.82578307  0.57899547     0.06400
C4115       C  0.69004527  0.82670508  0.58423456     0.26000
C4116       C  0.70408048  0.81925353  0.57234439    -0.11700
C4117       C  0.69927424  0.81072759  0.55500160    -0.25700
C4118       C  0.67993456  0.80908419  0.55025661     0.36800
C4119       C  0.65573346  0.83442534  0.59085371     0.06400
F4120       F  0.69531774  0.83559193  0.60040363    -0.19500
H4121       H  0.71878603  0.82083570  0.57638945     0.16200
F4122       F  0.67442676  0.80041133  0.53404810    -0.23200
H4123       H  0.65125615  0.81527306  0.55799875     0.18000
C4124       C  0.64259448  0.84707202  0.58293877     0.26000
C4125       C  0.62763006  0.85415709  0.59380994    -0.11700
C4126       C  0.62527790  0.84859498  0.61267646    -0.25700
C4127       C  0.63882905  0.83650685  0.62081442     0.36900
C4128       C  0.65390011  0.82955719  0.60999376    -0.27400
F4129       F  0.64420663  0.85254149  0.56463880    -0.19500
H4130       H  0.61750434  0.86349969  0.58725741     0.16200
F4131       F  0.63755097  0.83144984  0.63926233    -0.23200
H4132       H  0.66387539  0.81994359  0.61644357     0.18000
C4133       C  0.86519113  0.82729125  0.41363412    -0.27200
C4134       C  0.84748570  0.83623940  0.41340436     0.06400
C4135       C  0.84492461  0.85182828  0.40128851     0.26000
C4136       C  0.85976212  0.85819316  0.38972893    -0.11700
C4137       C  0.87734185  0.84904352  0.38981815    -0.25700
C4138       C  0.87995192  0.83357170  0.40201342     0.36800
C4139       C  0.83221000  0.82997039  0.42659456     0.06400
F4140       F  0.82792805  0.86064844  0.40029019    -0.19500
H4141       H  0.85735882  0.86998950  0.38032846     0.16200
F4142       F  0.89696731  0.82479704  0.40308554    -0.23200
H4143       H  0.86774290  0.81561962  0.42314451     0.18000
C4144       C  0.82717064  0.81080931  0.42861100     0.26000
C4145       C  0.81316131  0.80531925  0.44164138    -0.11700
C4146       C  0.80388347  0.81878423  0.45294720    -0.25700
C4147       C  0.80903856  0.83794789  0.45079465     0.36900
C4148       C  0.82296780  0.84333986  0.43786113    -0.27400
F4149       F  0.83553824  0.79742431  0.41775862    -0.19500
H4150       H  0.80955195  0.79051947  0.44283012     0.16200
F4151       F  0.80082287  0.85167650  0.46132036    -0.23200
H4152       H  0.82680034  0.85810687  0.43691275     0.18000
C4153       C  0.81969356  0.84770644  0.56703047    -0.27200
C4154       C  0.81599877  0.86666908  0.57126872     0.06400
C4155       C  0.80103727  0.87583136  0.56183741     0.26000
C4156       C  0.78960033  0.86587814  0.54901131    -0.11700
C4157       C  0.79273712  0.84663048  0.54563491    -0.25700
C4158       C  0.80816768  0.83774092  0.55447157     0.36800
C4159       C  0.82727942  0.87637815  0.58613503     0.06400
F4160       F  0.79684073  0.89408519  0.56575258    -0.19500
H4161       H  0.77778940  0.87298142  0.54237552     0.16200
F4162       F  0.81211737  0.81934089  0.55097289    -0.23200
H4163       H  0.83140807  0.84048396  0.57371118     0.18000
C4164       C  0.83002741  0.86784682  0.60391255     0.26000
C4165       C  0.84021290  0.87718941  0.61805639    -0.11700
C4166       C  0.84779821  0.89512525  0.61475094    -0.25700
C4167       C  0.84518617  0.90369551  0.59708007     0.36900
C4168       C  0.83511060  0.89431720  0.58283849    -0.27400
F4169       F  0.82214813  0.85083467  0.60790648    -0.19500
H4170       H  0.84174686  0.87065763  0.63180174     0.16200
F4171       F  0.85169264  0.92142506  0.59388010    -0.23200
H4172       H  0.83325884  0.90114338  0.56928743     0.18000
C4173       C  0.67905933  0.85427475  0.44929408    -0.27200
C4174       C  0.68749345  0.86772300  0.43740466     0.06400
C4175       C  0.70696778  0.87159246  0.43956646     0.26000
C4176       C  0.71772667  0.86185498  0.45300021    -0.11700
C4177       C  0.70941211  0.84789698  0.46439094    -0.25700
C4178       C  0.68984456  0.84436993  0.46254045     0.36800
C4179       C  0.67606085  0.87730088  0.42255100     0.06400
F4180       F  0.71583538  0.88415779  0.42811573    -0.19500
H4181       H  0.73275680  0.86475561  0.45398108     0.16200
F4182       F  0.68106171  0.83132629  0.47351358    -0.23200
H4183       H  0.66404283  0.85133468  0.44826305     0.18000
C4184       C  0.66391368  0.86695747  0.41052188     0.26000
C4185       C  0.65398359  0.87602511  0.39600300    -0.11700
C4186       C  0.65627388  0.89540989  0.39300300    -0.25700
C4187       C  0.66794129  0.90584962  0.40527875     0.36900
C4188       C  0.67758780  0.89688950  0.41998017    -0.27400
F4189       F  0.66236721  0.84795203  0.41216247    -0.19500
H4190       H  0.64516382  0.86777421  0.38656148     0.16200
F4191       F  0.67002985  0.92474641  0.40299737    -0.23200
H4192       H  0.68641989  0.90527145  0.42928203     0.18000
C4193       C  0.68843521  0.92974368  0.31318267    -0.27200
C4194       C  0.68993348  0.94936420  0.31160872     0.06400
C4195       C  0.67607587  0.96074365  0.32009605     0.26000
C4196       C  0.66163161  0.95262154  0.33092378    -0.11700
C4197       C  0.66072111  0.93292880  0.33354682    -0.25700
C4198       C  0.67408505  0.92159111  0.32398630     0.36800
C4199       C  0.70653709  0.95771051  0.30191427     0.06400
F4200       F  0.67663304  0.97977314  0.31810990    -0.19500
H4201       H  0.65175216  0.96205253  0.33759437     0.16200
F4202       F  0.67383893  0.90253621  0.32584497    -0.23200
H4203       H  0.69891345  0.92069775  0.30668126     0.18000
C4204       C  0.71803651  0.97106274  0.31113259     0.26000
C4205       C  0.73421295  0.97814690  0.30226502    -0.11700
C4206       C  0.73930143  0.97208758  0.28403791    -0.25700
C4207       C  0.72780831  0.95860315  0.27486818     0.36900
C4208       C  0.71165393  0.95147644  0.28380128    -0.27400
F4209       F  0.71397286  0.97684492  0.32896188    -0.19500
H4210       H  0.74271805  0.98849747  0.30969853     0.16200
F4211       F  0.73220829  0.95211795  0.25736824    -0.23200
H4212       H  0.70307075  0.94106099  0.27654193     0.18000
C4213       C  0.70298531  0.03278308  0.20641990    -0.27200
C4214       C  0.70317535  0.05139728  0.19959894     0.06400
C4215       C  0.71974346  0.06229873  0.20203034     0.26000
C4216       C  0.73541933  0.05488527  0.21148752    -0.11700
C4217       C  0.73523081  0.03628022  0.21815664    -0.25700
C4218       C  0.71890750  0.02518098  0.21536015     0.36800
C4219       C  0.68624222  0.05939152  0.18992097     0.06400
F4220       F  0.72108352  0.07993900  0.19472639    -0.19500
H4221       H  0.74795855  0.06356277  0.21313830     0.16200
F4222       F  0.71815177  0.00712379  0.22166971    -0.23200
H4223       H  0.69041448  0.02412727  0.20500893     0.18000
C4224       C  0.67628798  0.04908412  0.17610503     0.26000
C4225       C  0.66148403  0.05744851  0.16601505    -0.11700
C4226       C  0.65606003  0.07630902  0.16939930    -0.25700
C4227       C  0.66614779  0.08649528  0.18334026     0.36900
C4228       C  0.68055884  0.07794910  0.19375266    -0.27400
F4229       F  0.68171104  0.03136856  0.17129669    -0.19500
H4230       H  0.65529678  0.04935950  0.15463771     0.16200
F4231       F  0.66313179  0.10517850  0.18608557    -0.23200
H4232       H  0.68780622  0.08620524  0.20442382     0.18000
C4233       C  0.84217773  0.10318383  0.34787902    -0.27200
C4234       C  0.82594819  0.09206258  0.35104793     0.06400
C4235       C  0.81713304  0.09300728  0.36889096     0.26000
C4236       C  0.82412551  0.10511931  0.38289824    -0.11700
C4237       C  0.84007765  0.11649669  0.37955096    -0.25700
C4238       C  0.84915336  0.11531970  0.36191345     0.36800
C4239       C  0.81820125  0.07973042  0.33572053     0.06400
F4240       F  0.80135699  0.08271281  0.37264693    -0.19500
H4241       H  0.81696414  0.10568845  0.39641408     0.16200
F4242       F  0.86425201  0.12648665  0.35789545    -0.23200
H4243       H  0.84946888  0.10254528  0.33444306     0.18000
C4244       C  0.81617208  0.08641561  0.31707658     0.26000
C4245       C  0.80903167  0.07462969  0.30281127    -0.11700
C4246       C  0.80372191  0.05590587  0.30672739    -0.25700
C4247       C  0.80545717  0.04934701  0.32547318     0.36900
C4248       C  0.81269468  0.06109281  0.33967272    -0.27400
F4249       F  0.82086122  0.10444353  0.31263384    -0.19500
H4250       H  0.80797797  0.08011392  0.28857749     0.16200
F4251       F  0.80030833  0.03150521  0.33017563    -0.23200
H4252       H  0.81429397  0.05543591  0.35378429     0.18000
C4253       C  0.80284434  0.93447973  0.17560765    -0.27200
C4254       C  0.82084414  0.93608978  0.16731147     0.06400
C4255       C  0.83302196  0.95057021  0.17333182     0.26000
C4256       C  0.82751078  0.96280372  0.18778187    -0.11700
C4257       C  0.80967922  0.96099599  0.19650161    -0.25700
C4258       C  0.79726690  0.94677320  0.19009112     0.36800
C4259       C  0.82684890  0.92271855  0.15235603     0.06400
F4260       F  0.85014798  0.95309358  0.16499938    -0.19500
H4261       H  0.83727807  0.97378798  0.19211230     0.16200
F4262       F  0.77997258  0.94439310  0.19809051    -0.23200
H4263       H  0.79322696  0.92344060  0.17108082     0.18000
C4264       C  0.84366530  0.91228767  0.15417140     0.26000
C4265       C  0.84928171  0.89986268  0.13986508    -0.11700
C4266       C  0.83823224  0.89752908  0.12353572    -0.25700
C4267       C  0.82146538  0.90815156  0.12167334     0.36900
C4268       C  0.81581750  0.92047739  0.13603430    -0.27400
F4269       F  0.85441007  0.91375320  0.17001108    -0.19500
H4270       H  0.86209962  0.89175584  0.14176484     0.16200
F4271       F  0.81079398  0.90712773  0.10575256    -0.23200
H4272       H  0.80295414  0.92856759  0.13426901     0.18000
C4273       C  0.86596247  0.94296911  0.29154127    -0.27200
C4274       C  0.86179213  0.94003303  0.31076503     0.06400
C4275       C  0.84811238  0.95144391  0.31947084     0.26000
C4276       C  0.83842097  0.96503089  0.30902047    -0.11700
C4277       C  0.84212496  0.96763222  0.28966451    -0.25700
C4278       C  0.85624845  0.95663070  0.28104218     0.36800
C4279       C  0.87089177  0.92444204  0.32142718     0.06400
F4280       F  0.84338736  0.94882097  0.33786919    -0.19500
H4281       H  0.82763491  0.97328361  0.31605596     0.16200
F4282       F  0.86001646  0.95837632  0.26232101    -0.23200
H4283       H  0.87654840  0.93442168  0.28456277     0.18000
C4284       C  0.87088613  0.90602460  0.31410870     0.26000
C4285       C  0.87889944  0.89128875  0.32440378    -0.11700
C4286       C  0.88739968  0.89451831  0.34211937    -0.25700
C4287       C  0.88730413  0.91294503  0.34953083     0.36900
C4288       C  0.87906424  0.92771130  0.33927057    -0.27400
F4289       F  0.86276545  0.90215460  0.29714715    -0.19500
H4290       H  0.87844985  0.87723820  0.31841795     0.16200
F4291       F  0.89589003  0.91693797  0.36621526    -0.23200
H4292       H  0.87938115  0.94182657  0.34511942     0.18000
C4293       C  0.83533120  0.08362341  0.19382541    -0.27200
C4294       C  0.85318735  0.07918852  0.18647250     0.06400
C4295       C  0.86153098  0.06185559  0.19131971     0.26000
C4296       C  0.85226164  0.04947843  0.20369811    -0.11700
C4297       C  0.83459670  0.05420889  0.21152610    -0.25700
C4298       C  0.82614616  0.07144166  0.20622956     0.36800
C4299       C  0.86361466  0.09371886  0.17556502     0.06400
F4300       F  0.87899825  0.05726645  0.18484630    -0.19500
H4301       H  0.85905274  0.03630710  0.20734953     0.16200
F4302       F  0.80909805  0.07684546  0.21320341    -0.23200
H4303       H  0.82859545  0.09685106  0.19023276     0.18000
C4304       C  0.87252288  0.08972553  0.15822432     0.26000
C4305       C  0.88295068  0.10377461  0.14889490    -0.11700
C4306       C  0.88449225  0.12193965  0.15668249    -0.25700
C4307       C  0.87472446  0.12609065  0.17349981     0.36900
C4308       C  0.86461559  0.11209003  0.18286054    -0.27400
F4309       F  0.87099180  0.07238252  0.15024219    -0.19500
H4310       H  0.89019800  0.10032903  0.13586651     0.16200
F4311       F  0.87481455  0.14376152  0.18090565    -0.23200
H4312       H  0.85773382  0.11558755  0.19607881     0.18000
C4313       C  0.04191399  0.33001882  0.17954577    -0.27200
C4314       C  0.05396783  0.31793686  0.18958940     0.06400
C4315       C  0.07247117  0.31522728  0.18292756     0.26000
C4316       C  0.07890782  0.32500437  0.16706053    -0.11700
C4317       C  0.06714982  0.33770602  0.15718220    -0.25700
C4318       C  0.04841869  0.34012436  0.16385678     0.36800
C4319       C  0.04755582  0.30916769  0.20757448     0.06400
F4320       F  0.08485262  0.30421301  0.19254111    -0.19500
H4321       H  0.09366037  0.32348494  0.16325255     0.16200
F4322       F  0.03663915  0.35320464  0.15644282    -0.23200
H4323       H  0.02753688  0.33226062  0.18433899     0.18000
C4324       C  0.03828526  0.31996130  0.22145947     0.26000
C4325       C  0.03203879  0.31156989  0.23819571    -0.11700
C4326       C  0.03498217  0.29227151  0.24159843    -0.25700
C4327       C  0.04485691  0.28161222  0.22795555     0.36900
C4328       C  0.05091244  0.28998979  0.21111975    -0.27400
F4329       F  0.03545972  0.33872248  0.21900063    -0.19500
H4330       H  0.02463940  0.32021862  0.24840422     0.16200
F4331       F  0.04843302  0.26301015  0.23062758    -0.23200
H4332       H  0.05797750  0.28135086  0.20066896     0.18000
C4333       C  0.94730455  0.22618956  0.21182269    -0.27200
C4334       C  0.95560300  0.20957001  0.20494955     0.06400
C4335       C  0.97192504  0.20259145  0.21386301     0.26000
C4336       C  0.97940432  0.21181951  0.22967573    -0.11700
C4337       C  0.97069786  0.22808328  0.23699923    -0.25700
C4338       C  0.95467241  0.23534628  0.22770791     0.36800
C4339       C  0.94641958  0.19896585  0.18934967     0.06400
F4340       F  0.98012625  0.18637275  0.20785165    -0.19500
H4341       H  0.99174731  0.20589615  0.23651201     0.16200
F4342       F  0.94611915  0.25132149  0.23387298    -0.23200
H4343       H  0.93490097  0.23197823  0.20497436     0.18000
C4344       C  0.92709781  0.19451774  0.19034649     0.26000
C4345       C  0.91855582  0.18393835  0.17610205    -0.11700
C4346       C  0.92911496  0.17661912  0.16085905    -0.25700
C4347       C  0.94833462  0.18209014  0.15932390     0.36900
C4348       C  0.95683083  0.19301641  0.17354676    -0.27400
F4349       F  0.91660128  0.19964830  0.20556352    -0.19500
H4350       H  0.90361903  0.18070817  0.17744800     0.16200
F4351       F  0.95889373  0.17778515  0.14397048    -0.23200
H4352       H  0.97160097  0.19692267  0.17218264     0.18000
C4353       C  0.07347274  0.18707830  0.30679433    -0.27200
C4354       C  0.07132453  0.17792117  0.32427031     0.06400
C4355       C  0.05618536  0.18311408  0.33605566     0.26000
C4356       C  0.04374808  0.19738963  0.33057881    -0.11700
C4357       C  0.04594247  0.20668335  0.31315176    -0.25700
C4358       C  0.06088235  0.20122678  0.30119367     0.36800
C4359       C  0.08495846  0.16313583  0.33021121     0.06400
F4360       F  0.05316603  0.17413236  0.35272016    -0.19500
H4361       H  0.03224741  0.20106673  0.33999023     0.16200
F4362       F  0.06367434  0.20985696  0.28431853    -0.23200
H4363       H  0.08514146  0.18348123  0.29756430     0.18000
C4364       C  0.08991593  0.14835634  0.31794925     0.26000
C4365       C  0.10251696  0.13438027  0.32382908    -0.11700
C4366       C  0.11060747  0.13481725  0.34201160    -0.25700
C4367       C  0.10581407  0.14981385  0.35418040     0.36900
C4368       C  0.09313351  0.16374925  0.34829668    -0.27400
F4369       F  0.08209807  0.14704174  0.30047472    -0.19500
H4370       H  0.10551897  0.12290278  0.31420923     0.16200
F4371       F  0.11364338  0.15144262  0.37158882    -0.23200
H4372       H  0.08985545  0.17521901  0.35785707     0.18000
C4373       C  0.94327904  0.34756407  0.31426803    -0.27200
C4374       C  0.92483239  0.34269035  0.31984185     0.06400
C4375       C  0.91892603  0.32382273  0.31814326     0.26000
C4376       C  0.93133479  0.31013201  0.31114431    -0.11700
C4377       C  0.94994009  0.31489762  0.30580648    -0.25700
C4378       C  0.95577073  0.33387823  0.30743611     0.36800
C4379       C  0.91175878  0.35752533  0.32680313     0.06400
F4380       F  0.90104188  0.31866965  0.32291537    -0.19500
H4381       H  0.92641680  0.29568556  0.31019496     0.16200
F4382       F  0.97353673  0.33930272  0.30251195    -0.23200
H4383       H  0.94810228  0.36203368  0.31542421     0.18000
C4384       C  0.90252164  0.35591727  0.34434216     0.26000
C4385       C  0.89047034  0.37027256  0.35067670    -0.11700
C4386       C  0.88726742  0.38640997  0.33962523    -0.25700
C4387       C  0.89675858  0.38803428  0.32215741     0.36900
C4388       C  0.90882085  0.37374943  0.31590316    -0.27400
F4389       F  0.90551011  0.34070418  0.35556211    -0.19500
H4390       H  0.88354546  0.36864193  0.36418402     0.16200
F4391       F  0.89495937  0.40369746  0.31132127    -0.23200
H4392       H  0.91591616  0.37535767  0.30243235     0.18000
C4393       C  0.91830038  0.16872389  0.37641101    -0.27200
C4394       C  0.91275867  0.18306997  0.36389619     0.06400
C4395       C  0.89338108  0.18660333  0.36116869     0.26000
C4396       C  0.87988862  0.17655824  0.37141416    -0.11700
C4397       C  0.88541401  0.16271614  0.38440625    -0.25700
C4398       C  0.90469685  0.15848526  0.38654531     0.36800
C4399       C  0.92702705  0.19490670  0.35420451     0.06400
F4400       F  0.88751535  0.20045377  0.34932353    -0.19500
H4401       H  0.86505077  0.17993961  0.36959231     0.16200
F4402       F  0.91040273  0.14528842  0.39918144    -0.23200
H4403       H  0.93316613  0.16569990  0.37855250     0.18000
C4404       C  0.94088408  0.20481276  0.36450755     0.26000
C4405       C  0.95320978  0.21725067  0.35528839    -0.11700
C4406       C  0.95185057  0.22009137  0.33568095    -0.25700
C4407       C  0.93818360  0.20977771  0.32537556     0.36900
C4408       C  0.92598774  0.19733740  0.33459345    -0.27400
F4409       F  0.94198518  0.20306243  0.38356960    -0.19500
H4410       H  0.96357537  0.22493263  0.36356590     0.16200
F4411       F  0.93659522  0.21153821  0.30634060    -0.23200
H4412       H  0.91553555  0.18967178  0.32639639     0.18000
C4413       C  0.05287342  0.32791726  0.35395982    -0.27200
C4414       C  0.06668641  0.31807286  0.36420043     0.06400
C4415       C  0.06524454  0.29831114  0.36571695     0.26000
C4416       C  0.05064686  0.28862738  0.35652337    -0.11700
C4417       C  0.03752926  0.29842219  0.34540071    -0.25700
C4418       C  0.03851045  0.31821061  0.34449376     0.36800
C4419       C  0.08278115  0.32840416  0.37281735     0.06400
F4420       F  0.07856153  0.28824422  0.37512658    -0.19500
H4421       H  0.05026612  0.27337038  0.35718867     0.16200
F4422       F  0.02574785  0.32814260  0.33420465    -0.23200
H4423       H  0.05340089  0.34315120  0.35301498     0.18000
C4424       C  0.09318447  0.34180779  0.36236970     0.26000
C4425       C  0.10861686  0.35110714  0.37057422    -0.11700
C4426       C  0.11409379  0.34693014  0.38910869    -0.25700
C4427       C  0.10356048  0.33377445  0.39964443     0.36900
C4428       C  0.08800608  0.32469705  0.39156674    -0.27400
F4429       F  0.08885101  0.34545010  0.34405026    -0.19500
H4430       H  0.11660296  0.36121467  0.36230451     0.16200
F4431       F  0.10804208  0.33000807  0.41790720    -0.23200
H4432       H  0.07995818  0.31479988  0.40002145     0.18000
C4433       C  0.79218167  0.55157173  0.21701580    -0.27200
C4434       C  0.79237669  0.55539573  0.19756370     0.06400
C4435       C  0.77567746  0.55247211  0.18704016     0.26000
C4436       C  0.75926322  0.54575787  0.19582942    -0.11700
C4437       C  0.75902014  0.54205955  0.21531420    -0.25700
C4438       C  0.77571684  0.54504462  0.22585494     0.36800
C4439       C  0.80984096  0.56267393  0.18832708     0.06400
F4440       F  0.77505372  0.55654533  0.16831557    -0.19500
H4441       H  0.74665071  0.54361440  0.18737874     0.16200
F4442       F  0.77637680  0.54109555  0.24460643    -0.23200
H4443       H  0.80490316  0.55341094  0.22537039     0.18000
C4444       C  0.81985758  0.57808292  0.19591627     0.26000
C4445       C  0.83498096  0.58613531  0.18597840    -0.11700
C4446       C  0.84058263  0.57901492  0.16821570    -0.25700
C4447       C  0.83078673  0.56312350  0.16103841     0.36900
C4448       C  0.81590725  0.55494746  0.17113665    -0.27400
F4449       F  0.81416040  0.58629990  0.21227761    -0.19500
H4450       H  0.84124243  0.59875493  0.19180745     0.16200
F4451       F  0.83467867  0.55616695  0.14360254    -0.23200
H4452       H  0.80859259  0.54292550  0.16509640     0.18000
C4453       C  0.78436280  0.47883410  0.30584731    -0.27200
C4454       C  0.79374269  0.46348377  0.29756115     0.06400
C4455       C  0.78714043  0.45637091  0.28019909     0.26000
C4456       C  0.77118344  0.46421477  0.27160542    -0.11700
C4457       C  0.76165364  0.47942875  0.28001356    -0.25700
C4458       C  0.76857225  0.48684767  0.29715359     0.36800
C4459       C  0.80963487  0.45435949  0.30770071     0.06400
F4460       F  0.79621063  0.44194768  0.27145813    -0.19500
H4461       H  0.76633685  0.45842888  0.25827933     0.16200
F4462       F  0.75972792  0.50140892  0.30590362    -0.23200
H4463       H  0.78897233  0.48433803  0.31937444     0.18000
C4464       C  0.82435360  0.46511689  0.31565131     0.26000
C4465       C  0.83825754  0.45651803  0.32672968    -0.11700
C4466       C  0.83775684  0.43694875  0.33026091    -0.25700
C4467       C  0.82341482  0.42615545  0.32142039     0.36900
C4468       C  0.80952372  0.43479402  0.31043473    -0.27400
F4469       F  0.82527249  0.48401923  0.31276842    -0.19500
H4470       H  0.84907338  0.46553036  0.33255058     0.16200
F4471       F  0.82238085  0.40721212  0.32402292    -0.23200
H4472       H  0.79824510  0.42620348  0.30459618     0.18000
C4473       C  0.65827049  0.40961087  0.15178184    -0.27200
C4474       C  0.67398239  0.42132960  0.14829662     0.06400
C4475       C  0.68222330  0.42112627  0.13019802     0.26000
C4476       C  0.67488086  0.40946451  0.11598315    -0.11700
C4477       C  0.65904483  0.39792905  0.11938249    -0.25700
C4478       C  0.65072544  0.39815312  0.13742339     0.36800
C4479       C  0.68143927  0.43400069  0.16340144     0.06400
F4480       F  0.69762683  0.43193934  0.12635348    -0.19500
H4481       H  0.68155024  0.40949086  0.10220481     0.16200
F4482       F  0.63567373  0.38691468  0.14134404    -0.23200
H4483       H  0.65168735  0.40952737  0.16559868     0.18000
C4484       C  0.68316473  0.45349656  0.16027238     0.26000
C4485       C  0.68963201  0.46546171  0.17463923    -0.11700
C4486       C  0.69450866  0.45838203  0.19256957    -0.25700
C4487       C  0.69310590  0.43873792  0.19559239     0.36900
C4488       C  0.68653896  0.42676071  0.18116443    -0.27400
F4489       F  0.67785619  0.46112856  0.14351799    -0.19500
H4490       H  0.69036709  0.48044266  0.17178390     0.16200
F4491       F  0.69782227  0.43105338  0.21250062    -0.23200
H4492       H  0.68542456  0.41176742  0.18386023     0.18000
C4493       C  0.66418588  0.56757028  0.32445710    -0.27200
C4494       C  0.67745460  0.58030186  0.33181580     0.06400
C4495       C  0.69583689  0.58066123  0.32422095     0.26000
C4496       C  0.70070696  0.56856095  0.30927513    -0.11700
C4497       C  0.68734580  0.55583164  0.30172973    -0.25700
C4498       C  0.66900867  0.55539090  0.30971361     0.36800
C4499       C  0.67175763  0.59321786  0.34726740     0.06400
F4500       F  0.70890674  0.59301565  0.33096493    -0.19500
H4501       H  0.71489571  0.56925199  0.30353245     0.16200
F4502       F  0.65568472  0.54300300  0.30354071    -0.23200
H4503       H  0.65001872  0.56697024  0.33028910     0.18000
C4504       C  0.65737065  0.60654474  0.34433608     0.26000
C4505       C  0.65147081  0.61824438  0.35912503    -0.11700
C4506       C  0.65975645  0.61686418  0.37707703    -0.25700
C4507       C  0.67408027  0.60343376  0.38006268     0.36900
C4508       C  0.68005099  0.59175270  0.36523215    -0.27400
F4509       F  0.64928864  0.60846343  0.32704267    -0.19500
H4510       H  0.64072552  0.62869156  0.35641329     0.16200
F4511       F  0.68194464  0.60130687  0.39742744    -0.23200
H4512       H  0.69093251  0.58134145  0.36782454     0.18000
C4513       C  0.60532553  0.59211058  0.17756605    -0.27200
C4514       C  0.62487749  0.58922526  0.17561388     0.06400
C4515       C  0.63510935  0.60065536  0.16286616     0.26000
C4516       C  0.62591007  0.61478923  0.15253298    -0.11700
C4517       C  0.60649588  0.61792086  0.15496461    -0.25700
C4518       C  0.59621726  0.60634600  0.16742219     0.36800
C4519       C  0.63445762  0.57428559  0.18683166     0.06400
F4520       F  0.65411862  0.59867273  0.16097542    -0.19500
H4521       H  0.63405316  0.62374422  0.14315897     0.16200
F4522       F  0.57730805  0.60881282  0.16973074    -0.23200
H4523       H  0.59707529  0.58329764  0.18697361     0.18000
C4524       C  0.63188046  0.57285768  0.20653630     0.26000
C4525       C  0.64157441  0.55910113  0.21695097    -0.11700
C4526       C  0.65413007  0.54666371  0.20796081    -0.25700
C4527       C  0.65616028  0.54771330  0.18817555     0.36900
C4528       C  0.64639880  0.56133731  0.17779554    -0.27400
F4529       F  0.62070008  0.58531664  0.21585218    -0.19500
H4530       H  0.63990024  0.55872449  0.23215678     0.16200
F4531       F  0.66766519  0.53558397  0.17881274    -0.23200
H4532       H  0.64825431  0.56183431  0.16261362     0.18000
C4533       C  0.64267317  0.40279295  0.32251431    -0.27200
C4534       C  0.63985262  0.42172429  0.32761867     0.06400
C4535       C  0.62770057  0.42588658  0.34281144     0.26000
C4536       C  0.61785291  0.41137202  0.35202363    -0.11700
C4537       C  0.61984730  0.39260561  0.34605846    -0.25700
C4538       C  0.63280621  0.38836294  0.33162211     0.36800
C4539       C  0.64876881  0.43684598  0.31614276     0.06400
F4540       F  0.62508151  0.44398008  0.34846839    -0.19500
H4541       H  0.60790965  0.41488918  0.36312028     0.16200
F4542       F  0.63547160  0.37027548  0.32592762    -0.23200
H4543       H  0.65193258  0.39921263  0.31086472     0.18000
C4544       C  0.66810050  0.43604477  0.31166921     0.26000
C4545       C  0.67592154  0.44881345  0.29887385    -0.11700
C4546       C  0.66473296  0.46277223  0.29019860    -0.25700
C4547       C  0.64553252  0.46413903  0.29535300     0.36900
C4548       C  0.63765620  0.45121336  0.30815168    -0.27400
F4549       F  0.67943860  0.42278207  0.31956970    -0.19500
H4550       H  0.69085263  0.44759719  0.29564694     0.16200
F4551       F  0.63421373  0.47749597  0.28762914    -0.23200
H4552       H  0.62267568  0.45199981  0.31128770     0.18000
C4553       C  0.28179825  0.29426491  0.55268458    -0.27200
C4554       C  0.30105114  0.29799004  0.54960354     0.06400
C4555       C  0.31201805  0.28476074  0.53972247     0.26000
C4556       C  0.30370247  0.26833580  0.53262423    -0.11700
C4557       C  0.28427610  0.26472475  0.53522043    -0.25700
C4558       C  0.27340160  0.27786502  0.54550426     0.36800
C4559       C  0.30984930  0.31535509  0.55721652     0.06400
F4560       F  0.33086989  0.28757288  0.53721212    -0.19500
H4561       H  0.31251895  0.25852241  0.52490530     0.16200
F4562       F  0.25462718  0.27507046  0.54847885    -0.23200
H4563       H  0.27319164  0.30424091  0.56044007     0.18000
C4564       C  0.32000828  0.32764280  0.54541647     0.26000
C4565       C  0.33025785  0.34271303  0.55309208    -0.11700
C4566       C  0.33063994  0.34580788  0.57277259    -0.25700
C4567       C  0.31918417  0.33417089  0.58433169     0.36900
C4568       C  0.30896675  0.31915178  0.57659704    -0.27400
F4569       F  0.32034246  0.32481130  0.52644730    -0.19500
H4570       H  0.33834561  0.35124908  0.54343739     0.16200
F4571       F  0.31883132  0.33656869  0.60336799    -0.23200
H4572       H  0.30106609  0.30991282  0.58590095     0.18000
C4573       C  0.19829054  0.32314282  0.42652222    -0.27200
C4574       C  0.19330896  0.31607816  0.44435457     0.06400
C4575       C  0.17829584  0.32474601  0.45411952     0.26000
C4576       C  0.16829019  0.33967835  0.44595841    -0.11700
C4577       C  0.17287239  0.34653877  0.42783526    -0.25700
C4578       C  0.18794856  0.33767482  0.41809579     0.36800
C4579       C  0.20305740  0.29911512  0.45220556     0.06400
F4580       F  0.17230252  0.31794351  0.47100951    -0.19500
H4581       H  0.15608923  0.34496458  0.45347375     0.16200
F4582       F  0.19201889  0.34194988  0.39987128    -0.23200
H4583       H  0.20985463  0.31691768  0.41868354     0.18000
C4584       C  0.20710317  0.28329780  0.44077023     0.26000
C4585       C  0.21580417  0.26732025  0.44848927    -0.11700
C4586       C  0.22027729  0.26651838  0.46781253    -0.25700
C4587       C  0.21628521  0.28231606  0.47921399     0.36900
C4588       C  0.20801015  0.29843138  0.47142333    -0.27400
F4589       F  0.20205954  0.28293037  0.42226484    -0.19500
H4590       H  0.21863353  0.25535943  0.43940041     0.16200
F4591       F  0.22073361  0.28240596  0.49787273    -0.23200
H4592       H  0.20554496  0.31047471  0.48049828     0.18000
C4593       C  0.34333812  0.19396159  0.44576538    -0.27200
C4594       C  0.33975285  0.19036751  0.42660530     0.06400
C4595       C  0.32161918  0.19406646  0.41932721     0.26000
C4596       C  0.30720492  0.20062853  0.43119155    -0.11700
C4597       C  0.31053630  0.20358723  0.45057855    -0.25700
C4598       C  0.32896820  0.20047862  0.45766825     0.36800
C4599       C  0.35485202  0.18239560  0.41441904     0.06400
F4600       F  0.31784547  0.19132799  0.40071836    -0.19500
H4601       H  0.29327675  0.20292751  0.42524355     0.16200
F4602       F  0.33309276  0.20315778  0.47621478    -0.23200
H4603       H  0.35720496  0.19119023  0.45166531     0.18000
C4604       C  0.37264323  0.19120678  0.41311739     0.26000
C4605       C  0.38660567  0.18379880  0.40127185    -0.11700
C4606       C  0.38319982  0.16740220  0.39057870    -0.25700
C4607       C  0.36557663  0.15828195  0.39228727     0.36900
C4608       C  0.35154078  0.16578955  0.40405462    -0.27400
F4609       F  0.37632790  0.20731481  0.42284156    -0.19500
H4610       H  0.40012095  0.19098727  0.40037202     0.16200
F4611       F  0.36156772  0.14261707  0.38199699    -0.23200
H4612       H  0.33799856  0.15865771  0.40503704     0.18000
C4613       C  0.14285248  0.15911210  0.57978425    -0.27200
C4614       C  0.15538397  0.17375009  0.58476607     0.06400
C4615       C  0.15335892  0.18221575  0.60263298     0.26000
C4616       C  0.13921653  0.17611737  0.61512854    -0.11700
C4617       C  0.12650773  0.16157251  0.61013791    -0.25700
C4618       C  0.12857841  0.15309753  0.59221019     0.36800
C4619       C  0.17061359  0.17992928  0.57142472     0.06400
F4620       F  0.16534090  0.19613450  0.60823640    -0.19500
H4621       H  0.13833869  0.18278538  0.62886134     0.16200
F4622       F  0.11639795  0.13955527  0.58619815    -0.23200
H4623       H  0.14386467  0.15253348  0.56600713     0.18000
C4624       C  0.18247957  0.16664240  0.56267400     0.26000
C4625       C  0.19688664  0.17248186  0.55041069    -0.11700
C4626       C  0.19995984  0.19172774  0.54644567    -0.25700
C4627       C  0.18797941  0.20505798  0.55511189     0.36900
C4628       C  0.17351867  0.19917284  0.56743163    -0.27400
F4629       F  0.18051978  0.14796122  0.56636432    -0.19500
H4630       H  0.20576494  0.16177555  0.54408633     0.16200
F4631       F  0.19008523  0.22376278  0.55165569    -0.23200
H4632       H  0.16442983  0.20970609  0.57375059     0.18000
C4633       C  0.32580661  0.15693193  0.55421981    -0.27200
C4634       C  0.31727559  0.14244138  0.56460702     0.06400
C4635       C  0.29859645  0.13704153  0.56041878     0.26000
C4636       C  0.28825914  0.14673543  0.54667355    -0.11700
C4637       C  0.29632479  0.16213288  0.53709822    -0.25700
C4638       C  0.31546928  0.16676372  0.54059559     0.36800
C4639       C  0.32719211  0.13433878  0.58102951     0.06400
F4640       F  0.29020593  0.12274837  0.57005044    -0.19500
H4641       H  0.27365633  0.14275399  0.54418834     0.16200
F4642       F  0.32409858  0.18111649  0.53125331    -0.23200
H4643       H  0.34023132  0.16118405  0.55727053     0.18000
C4644       C  0.34354528  0.12335295  0.57883305     0.26000
C4645       C  0.35242569  0.11556589  0.59469714    -0.11700
C4646       C  0.34513584  0.11872141  0.61290095    -0.25700
C4647       C  0.32916109  0.13033866  0.61504673     0.36900
C4648       C  0.32025507  0.13796813  0.59921409    -0.27400
F4649       F  0.35047453  0.11962482  0.56134648    -0.19500
H4650       H  0.36457076  0.10649746  0.59268864     0.16200
F4651       F  0.32218841  0.13437854  0.63245004    -0.23200
H4652       H  0.30788108  0.14675838  0.60111864     0.18000
C4653       C  0.17430579  0.11724931  0.41786011    -0.27200
C4654       C  0.17674639  0.13689337  0.41810482     0.06400
C4655       C  0.16644187  0.14804300  0.40526327     0.26000
C4656       C  0.15492755  0.13954147  0.39164025    -0.11700
C4657       C  0.15345169  0.11989467  0.39071786    -0.25700
C4658       C  0.16276093  0.10878137  0.40423569     0.36800
C4659       C  0.19124510  0.14555966  0.43049873     0.06400
F4660       F  0.16809013  0.16712003  0.40543373    -0.19500
H4661       H  0.14816679  0.14824097  0.38107370     0.16200
F4662       F  0.16145673  0.08969055  0.40358482    -0.23200
H4663       H  0.18215676  0.10839103  0.42752536     0.18000
C4664       C  0.19210766  0.14150949  0.44992970     0.26000
C4665       C  0.20554739  0.15050285  0.46137016    -0.11700
C4666       C  0.21821993  0.16370283  0.45362015    -0.25700
C4667       C  0.21791848  0.16699130  0.43401961     0.36900
C4668       C  0.20460391  0.15794324  0.42263571    -0.27400
F4669       F  0.17944293  0.12955631  0.45799035    -0.19500
H4670       H  0.20546643  0.14777750  0.47642472     0.16200
F4671       F  0.23037298  0.17909419  0.42583419    -0.23200
H4672       H  0.20463007  0.16074117  0.40759175     0.18000
C4673       C  0.46129287  0.19679908  0.27600886    -0.27200
C4674       C  0.45347519  0.20754435  0.29071002     0.06400
C4675       C  0.45250137  0.22724628  0.28868014     0.26000
C4676       C  0.45937599  0.23594081  0.27227741    -0.11700
C4677       C  0.46746109  0.22520165  0.25763001    -0.25700
C4678       C  0.46818789  0.20543377  0.25965629     0.36800
C4679       C  0.44639791  0.19791021  0.30795875     0.06400
F4680       F  0.44547594  0.23814455  0.30279239    -0.19500
H4681       H  0.45873317  0.25115857  0.27123658     0.16200
F4682       F  0.47544068  0.19432993  0.24582268    -0.23200
H4683       H  0.46194583  0.18158251  0.27714397     0.18000
C4684       C  0.42788779  0.20081034  0.31448368     0.26000
C4685       C  0.42088096  0.19030489  0.32964963    -0.11700
C4686       C  0.43210199  0.17670534  0.33894654    -0.25700
C4687       C  0.45067030  0.17372208  0.33206696     0.36900
C4688       C  0.45770648  0.18444523  0.31703248    -0.27400
F4689       F  0.41607974  0.21281997  0.30536573    -0.19500
H4690       H  0.40617698  0.19218701  0.33348084     0.16200
F4691       F  0.46172849  0.15958946  0.33859334    -0.23200
H4692       H  0.47190056  0.18169952  0.31195754     0.18000
C4693       C  0.52845677  0.30449343  0.28913471    -0.27200
C4694       C  0.54684559  0.31205949  0.28820758     0.06400
C4695       C  0.55713217  0.31016518  0.27123621     0.26000
C4696       C  0.54928406  0.30063863  0.25580614    -0.11700
C4697       C  0.53085483  0.29331177  0.25670948    -0.25700
C4698       C  0.52039227  0.29549274  0.27349701     0.36800
C4699       C  0.55519681  0.32187845  0.30486568     0.06400
F4700       F  0.57456901  0.31800322  0.26928962    -0.19500
H4701       H  0.55748209  0.29940283  0.24293611     0.16200
F4702       F  0.50252612  0.28854143  0.27499315    -0.23200
H4703       H  0.52032779  0.30535986  0.30206682     0.18000
C4704       C  0.54454758  0.33472551  0.31564617     0.26000
C4705       C  0.55283435  0.34439545  0.33077614    -0.11700
C4706       C  0.57205603  0.34174126  0.33546438    -0.25700
C4707       C  0.58261267  0.32881326  0.32457532     0.36900
C4708       C  0.57417226  0.31878890  0.30981706    -0.27400
F4709       F  0.52634915  0.33874472  0.31102125    -0.19500
H4710       H  0.54413335  0.35455793  0.33798045     0.16200
F4711       F  0.60138150  0.32628129  0.32779274    -0.23200
H4712       H  0.58266433  0.30873487  0.30205602     0.18000
C4713       C  0.58208360  0.19458165  0.17671387    -0.27200
C4714       C  0.57526504  0.17592205  0.17546090     0.06400
C4715       C  0.55691635  0.17211894  0.18224472     0.26000
C4716       C  0.54550335  0.18665825  0.18923579    -0.11700
C4717       C  0.55201057  0.20544916  0.18996231    -0.25700
C4718       C  0.57067056  0.20918340  0.18387218     0.36800
C4719       C  0.58743351  0.16044048  0.16765240     0.06400
F4720       F  0.55006537  0.15422506  0.18255121    -0.19500
H4721       H  0.53137230  0.18311007  0.19399870     0.16200
F4722       F  0.57783121  0.22695090  0.18444209    -0.23200
H4723       H  0.59621063  0.19794898  0.17180999     0.18000
C4724       C  0.58028245  0.14710334  0.15460789     0.26000
C4725       C  0.59150344  0.13194158  0.14849332    -0.11700
C4726       C  0.61009859  0.12975435  0.15507793    -0.25700
C4727       C  0.61755734  0.14355610  0.16736540     0.36900
C4728       C  0.60635358  0.15865602  0.17355166    -0.27400
F4729       F  0.56247204  0.14876379  0.14762034    -0.19500
H4730       H  0.58542360  0.12160868  0.13904075     0.16200
F4731       F  0.63577200  0.14247414  0.17337415    -0.23200
H4732       H  0.61237661  0.16874371  0.18337079     0.18000
C4733       C  0.41484374  0.37299230  0.17630135    -0.27200
C4734       C  0.41447078  0.35536619  0.16720355     0.06400
C4735       C  0.40124546  0.35233115  0.15257147     0.26000
C4736       C  0.38891427  0.36671120  0.14710030    -0.11700
C4737       C  0.38917197  0.38416631  0.15638384    -0.25700
C4738       C  0.40228288  0.38725820  0.17101416     0.36800
C4739       C  0.42769928  0.34021816  0.17320886     0.06400
F4740       F  0.39971761  0.33525791  0.14401610    -0.19500
H4741       H  0.37874715  0.36402330  0.13594446     0.16200
F4742       F  0.40322717  0.40420631  0.17990101    -0.23200
H4743       H  0.42498726  0.37576346  0.18745015     0.18000
C4744       C  0.43796756  0.32980260  0.15980432     0.26000
C4745       C  0.44984105  0.31520152  0.16554814    -0.11700
C4746       C  0.45215054  0.31076086  0.18481267    -0.25700
C4747       C  0.44237401  0.32163973  0.19830476     0.36900
C4748       C  0.43023015  0.33613598  0.19249769    -0.27400
F4749       F  0.43697040  0.33403615  0.14112839    -0.19500
H4750       H  0.45740212  0.30745676  0.15474679     0.16200
F4751       F  0.44449206  0.31836659  0.21707021    -0.23200
H4752       H  0.42260283  0.34406809  0.20311773     0.18000
C4753       C  0.55663054  0.30816353  0.12553865    -0.27200
C4754       C  0.56365568  0.32443520  0.13460397     0.06400
C4755       C  0.55723169  0.32868634  0.15291433     0.26000
C4756       C  0.54557609  0.31602862  0.16256642    -0.11700
C4757       C  0.53953586  0.29919453  0.15398401    -0.25700
C4758       C  0.54450965  0.29568149  0.13509226     0.36800
C4759       C  0.57882406  0.33597003  0.12566091     0.06400
F4760       F  0.56252513  0.34493526  0.16162233    -0.19500
H4761       H  0.54145158  0.31925928  0.17695141     0.16200
F4762       F  0.53871882  0.27963797  0.12633786    -0.23200
H4763       H  0.56125206  0.30464864  0.11138262     0.18000
C4764       C  0.59552836  0.34025369  0.13573621     0.26000
C4765       C  0.61034443  0.34999791  0.12701865    -0.11700
C4766       C  0.60890049  0.35553754  0.10813110    -0.25700
C4767       C  0.59231412  0.35135762  0.09796071     0.36900
C4768       C  0.57735194  0.34172066  0.10671246    -0.27400
F4769       F  0.59805083  0.33399238  0.15367124    -0.19500
H4770       H  0.62333515  0.35245845  0.13477686     0.16200
F4771       F  0.59090660  0.35594959  0.07940086    -0.23200
H4772       H  0.56475484  0.33843878  0.09860968     0.18000
C4773       C  0.43973879  0.18572351  0.15824286    -0.27200
C4774       C  0.43081019  0.19204442  0.14183436     0.06400
C4775       C  0.43580600  0.20958067  0.13411323     0.26000
C4776       C  0.44963451  0.22072493  0.14284038    -0.11700
C4777       C  0.45867205  0.21450441  0.15939207    -0.25700
C4778       C  0.45361095  0.19673708  0.16695730     0.36800
C4779       C  0.41611088  0.18038221  0.13288692     0.06400
F4780       F  0.42695903  0.21607570  0.11839426    -0.19500
H4781       H  0.45303260  0.23434265  0.13680322     0.16200
F4782       F  0.46192117  0.18993185  0.18283786    -0.23200
H4783       H  0.43596199  0.17219456  0.16428114     0.18000
C4784       C  0.41966504  0.17142944  0.11557176     0.26000
C4785       C  0.40513759  0.16176367  0.10630993    -0.11700
C4786       C  0.38701008  0.16095852  0.11426773    -0.25700
C4787       C  0.38359899  0.16931995  0.13190205     0.36900
C4788       C  0.39817345  0.17888839  0.14124381    -0.27400
F4789       F  0.43703640  0.17249325  0.10745462    -0.19500
H4790       H  0.40778787  0.15565647  0.09253544     0.16200
F4791       F  0.36601916  0.16887706  0.13963092    -0.23200
H4792       H  0.39531606  0.18574441  0.15462302     0.18000
C4793       C  0.28052370  0.56243974  0.28990662    -0.27200
C4794       C  0.29344778  0.55073060  0.29930538     0.06400
C4795       C  0.28970568  0.53125977  0.30017435     0.26000
C4796       C  0.27339929  0.52374327  0.29171817    -0.11700
C4797       C  0.26038507  0.53545298  0.28228456    -0.25700
C4798       C  0.26418601  0.55498510  0.28151759     0.36800
C4799       C  0.31015060  0.55914824  0.30901181     0.06400
F4800       F  0.30195215  0.51945393  0.30898194    -0.19500
H4801       H  0.27101381  0.50867724  0.29253623     0.16200
F4802       F  0.25205528  0.56702660  0.27288859    -0.23200
H4803       H  0.28289303  0.57752710  0.28939287     0.18000
C4804       C  0.32221365  0.57191557  0.29968901     0.26000
C4805       C  0.33665563  0.58128576  0.30958732    -0.11700
C4806       C  0.33933496  0.57823748  0.32910374    -0.25700
C4807       C  0.32765998  0.56472448  0.33809974     0.36900
C4808       C  0.31333793  0.55537037  0.32817160    -0.27400
F4809       F  0.31986418  0.57553884  0.28100724    -0.19500
H4810       H  0.34508482  0.59133323  0.30185521     0.16200
F4811       F  0.32945074  0.56124232  0.35687622    -0.23200
H4812       H  0.30415020  0.54573232  0.33572834     0.18000
C4813       C  0.28308324  0.47583826  0.19342204    -0.27200
C4814       C  0.29060018  0.45817163  0.19820138     0.06400
C4815       C  0.28177279  0.44761290  0.21261816     0.26000
C4816       C  0.26569814  0.45463525  0.22182741    -0.11700
C4817       C  0.25790748  0.47202936  0.21651186    -0.25700
C4818       C  0.26679328  0.48257916  0.20220472     0.36800
C4819       C  0.30715108  0.45070080  0.18759462     0.06400
F4820       F  0.28824429  0.43024987  0.21736491    -0.19500
H4821       H  0.25905819  0.44626811  0.23278247     0.16200
F4822       F  0.26000131  0.49968382  0.19696709    -0.23200
H4823       H  0.28984715  0.48452181  0.18280106     0.18000
C4824       C  0.30796582  0.45217889  0.16781124     0.26000
C4825       C  0.32310187  0.44449485  0.15786562    -0.11700
C4826       C  0.33737739  0.43412494  0.16707203    -0.25700
C4827       C  0.33728828  0.43391263  0.18707554     0.36900
C4828       C  0.32228001  0.44207865  0.19709427    -0.27400
F4829       F  0.29361346  0.46011226  0.15787158    -0.19500
H4830       H  0.32302131  0.44561670  0.14259877     0.16200
F4831       F  0.35166331  0.42649942  0.19725767    -0.23200
H4832       H  0.32248787  0.44163458  0.21238709     0.18000
C4833       C  0.18508742  0.56011041  0.16096816    -0.27200
C4834       C  0.18148579  0.57916304  0.16490465     0.06400
C4835       C  0.18452897  0.58587165  0.18339048     0.26000
C4836       C  0.19082256  0.57365079  0.19760631    -0.11700
C4837       C  0.19416080  0.55447233  0.19374686    -0.25700
C4838       C  0.19135904  0.54788628  0.17511901     0.36800
C4839       C  0.17439652  0.59178758  0.14968527     0.06400
F4840       F  0.18160622  0.60428995  0.18768766    -0.19500
H4841       H  0.19277983  0.57918427  0.21174172     0.16200
F4842       F  0.19437773  0.52955749  0.17050367    -0.23200
H4843       H  0.18267457  0.55454980  0.14690972     0.18000
C4844       C  0.18343851  0.59246506  0.13198287     0.26000
C4845       C  0.17662270  0.60429121  0.11772350    -0.11700
C4846       C  0.16062011  0.61563706  0.12072437    -0.25700
C4847       C  0.15145161  0.61484026  0.13835151     0.36900
C4848       C  0.15831296  0.60303822  0.15265800    -0.27400
F4849       F  0.19917812  0.58205484  0.12861515    -0.19500
H4850       H  0.18391394  0.60460530  0.10427019     0.16200
F4851       F  0.13632865  0.62599651  0.14206333    -0.23200
H4852       H  0.15099613  0.60264076  0.16609461     0.18000
C4853       C  0.16090541  0.44179369  0.32066124    -0.27200
C4854       C  0.17492189  0.43335045  0.33182098     0.06400
C4855       C  0.19405619  0.43744061  0.32796766     0.26000
C4856       C  0.19894631  0.44964242  0.31316693    -0.11700
C4857       C  0.18489486  0.45810190  0.30193233    -0.25700
C4858       C  0.16572609  0.45406307  0.30598552     0.36800
C4859       C  0.16942368  0.42007203  0.34715319     0.06400
F4860       F  0.20802863  0.42996540  0.33876647    -0.19500
H4861       H  0.21377786  0.45256108  0.31060458     0.16200
F4862       F  0.15149274  0.46181943  0.29574619    -0.23200
H4863       H  0.14609645  0.43868173  0.32314918     0.18000
C4864       C  0.15515759  0.42474150  0.36024888     0.26000
C4865       C  0.14994918  0.41198614  0.37442238    -0.11700
C4866       C  0.15892722  0.39443277  0.37592883    -0.25700
C4867       C  0.17296256  0.38962269  0.36266515     0.36900
C4868       C  0.17811758  0.40233416  0.34845886    -0.27400
F4869       F  0.14660637  0.44184465  0.35968449    -0.19500
H4870       H  0.13920354  0.41604331  0.38454035     0.16200
F4871       F  0.18135317  0.37243389  0.36310256    -0.23200
H4872       H  0.18875248  0.39818969  0.33826265     0.18000
C4873       C  0.15478765  0.58208960  0.30129328    -0.27200
C4874       C  0.13825109  0.57613462  0.31047262     0.06400
C4875       C  0.13106180  0.55799763  0.30650481     0.26000
C4876       C  0.14073070  0.54592353  0.29408825    -0.11700
C4877       C  0.15766948  0.55173209  0.28536387    -0.25700
C4878       C  0.16441087  0.57015821  0.28895879     0.36800
C4879       C  0.12850608  0.58941076  0.32351236     0.06400
F4880       F  0.11502794  0.55174195  0.31502241    -0.19500
H4881       H  0.13516675  0.53189035  0.29162830     0.16200
F4882       F  0.18035474  0.57683180  0.28057222    -0.23200
H4883       H  0.16026536  0.59619145  0.30358426     0.18000
C4884       C  0.13881204  0.59967008  0.33719388     0.26000
C4885       C  0.13021305  0.61429733  0.34733241    -0.11700
C4886       C  0.11127362  0.61898088  0.34395665    -0.25700
C4887       C  0.10058663  0.60780561  0.33135624     0.36900
C4888       C  0.10917481  0.59324404  0.32118451    -0.27400
F4889       F  0.15735860  0.59587026  0.34038768    -0.19500
H4890       H  0.13860639  0.62253792  0.35713302     0.16200
F4891       F  0.08189163  0.61123381  0.32857797    -0.23200
H4892       H  0.10089444  0.58555332  0.31083844     0.18000
C4893       C  0.15471265  0.43897430  0.18451888    -0.27200
C4894       C  0.13512282  0.44127219  0.18218457     0.06400
C4895       C  0.12611445  0.45618099  0.19189544     0.26000
C4896       C  0.13648199  0.46804629  0.20400475    -0.11700
C4897       C  0.15606799  0.46562963  0.20626662    -0.25700
C4898       C  0.16510194  0.45106667  0.19617796     0.36800
C4899       C  0.12418399  0.42710334  0.17094331     0.06400
F4900       F  0.10735534  0.45949400  0.18947881    -0.19500
H4901       H  0.12927102  0.47936861  0.21130570     0.16200
F4902       F  0.18398606  0.44807588  0.19802867    -0.23200
H4903       H  0.16201094  0.42740926  0.17771731     0.18000
C4904       C  0.13109542  0.41974068  0.15372988     0.26000
C4905       C  0.12181571  0.40464927  0.14477059    -0.11700
C4906       C  0.10532034  0.39678193  0.15257091    -0.25700
C4907       C  0.09775289  0.40506757  0.16908124     0.36900
C4908       C  0.10727492  0.41971588  0.17824778    -0.27400
F4909       F  0.14687973  0.42703996  0.14558373    -0.19500
H4910       H  0.12786776  0.39881842  0.13199761     0.16200
F4911       F  0.08101161  0.39920414  0.17644878    -0.23200
H4912       H  0.10158757  0.42491095  0.19145757     0.18000
C4913       C  0.80697437  0.78201192  0.04741280    -0.27200
C4914       C  0.79643328  0.79829542  0.05137911     0.06400
C4915       C  0.77678873  0.79810027  0.04805211     0.26000
C4916       C  0.76800289  0.78191970  0.04078585    -0.11700
C4917       C  0.77865838  0.76576929  0.03643296    -0.25700
C4918       C  0.79827833  0.76595937  0.03995294     0.36800
C4919       C  0.80627884  0.81533473  0.05869052     0.06400
F4920       F  0.76620850  0.81375846  0.05107533    -0.19500
H4921       H  0.75293118  0.78224797  0.03799482     0.16200
F4922       F  0.80912576  0.75061942  0.03627280    -0.23200
H4923       H  0.82206811  0.78171855  0.05010103     0.18000
C4924       C  0.79981788  0.82478934  0.07487684     0.26000
C4925       C  0.81017256  0.83985771  0.08241818    -0.11700
C4926       C  0.82729114  0.84594283  0.07405512    -0.25700
C4927       C  0.83376851  0.83612244  0.05793915     0.36900
C4928       C  0.82320666  0.82132559  0.05022962    -0.27400
F4929       F  0.78424847  0.81860207  0.08427272    -0.19500
H4930       H  0.80518095  0.84574173  0.09555251     0.16200
F4931       F  0.85091173  0.84000217  0.05020588    -0.23200
H4932       H  0.82863466  0.81407514  0.03789951     0.18000
C4933       C  0.70315292  0.78629809  0.94343469    -0.27200
C4934       C  0.69548156  0.79999236  0.95548202     0.06400
C4935       C  0.69590040  0.79707447  0.97509554     0.26000
C4936       C  0.70421628  0.78082608  0.98249574    -0.11700
C4937       C  0.71222037  0.76719533  0.97046687    -0.25700
C4938       C  0.71141361  0.77002735  0.95077907     0.36800
C4939       C  0.68648062  0.81691862  0.94737321     0.06400
F4940       F  0.68866430  0.81014512  0.98709308    -0.19500
H4941       H  0.70465535  0.77908360  0.99768925     0.16200
F4942       F  0.71838297  0.75702545  0.93855531    -0.23200
H4943       H  0.70253927  0.78812670  0.92825222     0.18000
C4944       C  0.69620663  0.82835786  0.93441946     0.26000
C4945       C  0.68702060  0.84341879  0.92563339    -0.11700
C4946       C  0.66780438  0.84724452  0.92940987    -0.25700
C4947       C  0.65831056  0.83582068  0.94277976     0.36900
C4948       C  0.66762151  0.82099951  0.95172108    -0.27400
F4949       F  0.71453209  0.82472396  0.92997507    -0.19500
H4950       H  0.69497633  0.85126828  0.91530653     0.16200
F4951       F  0.63962135  0.83831418  0.94645804    -0.23200
H4952       H  0.65980784  0.81213431  0.96145199     0.18000
C4953       C  0.66776026  0.69997062  0.06813928    -0.27200
C4954       C  0.66532032  0.68083092  0.07276145     0.06400
C4955       C  0.67810044  0.66760170  0.06528775     0.26000
C4956       C  0.69268008  0.67339236  0.05323275    -0.11700
C4957       C  0.69504708  0.69251779  0.04840841    -0.25700
C4958       C  0.68249073  0.70581625  0.05622545     0.36800
C4959       C  0.64936716  0.67473285  0.08514427     0.06400
F4960       F  0.67672529  0.64906658  0.06987652    -0.19500
H4961       H  0.70217651  0.66278870  0.04767498     0.16200
F4962       F  0.68409736  0.72442397  0.05206425    -0.23200
H4963       H  0.65800107  0.71043873  0.07349048     0.18000
C4964       C  0.64527034  0.68433080  0.10204238     0.26000
C4965       C  0.63018427  0.67852766  0.11345025    -0.11700
C4966       C  0.61873102  0.66302748  0.10837800    -0.25700
C4967       C  0.62303008  0.65327835  0.09157100     0.36900
C4968       C  0.63805005  0.65918982  0.08008147    -0.27400
F4969       F  0.65614460  0.69905003  0.10783560    -0.19500
H4970       H  0.62770655  0.68607255  0.12651496     0.16200
F4971       F  0.61255639  0.63833667  0.08581378    -0.23200
H4972       H  0.64067271  0.65170852  0.06699994     0.18000
C4973       C  0.83618586  0.69646669  0.94534795    -0.27200
C4974       C  0.83250611  0.69273650  0.92618466     0.06400
C4975       C  0.81426264  0.69667958  0.91910489     0.26000
C4976       C  0.79993740  0.70317070  0.93116561    -0.11700
C4977       C  0.80346867  0.70618847  0.95049973    -0.25700
C4978       C  0.82203001  0.70336782  0.95729202     0.36800
C4979       C  0.84754411  0.68432994  0.91391347     0.06400
F4980       F  0.81020475  0.69428258  0.90050908    -0.19500
H4981       H  0.78592366  0.70541085  0.92539576     0.16200
F4982       F  0.82650608  0.70672010  0.97564603    -0.23200
H4983       H  0.84994820  0.69348166  0.95134830     0.18000
C4984       C  0.86649707  0.69059177  0.91489656     0.26000
C4985       C  0.88034068  0.68262852  0.90322739    -0.11700
C4986       C  0.87569192  0.66838909  0.89021733    -0.25700
C4987       C  0.85687394  0.66208539  0.88920275     0.36900
C4988       C  0.84304885  0.66976927  0.90110905    -0.27400
F4989       F  0.87159308  0.70492584  0.92657123    -0.19500
H4990       H  0.89472820  0.68789770  0.90405196     0.16200
F4991       F  0.85154546  0.64940319  0.87591172    -0.23200
H4992       H  0.82872428  0.66439293  0.90015287     0.18000
C4993       C  0.68867087  0.66711609  0.92607266    -0.27200
C4994       C  0.68653630  0.64753810  0.92757953     0.06400
C4995       C  0.69593855  0.63797748  0.94225219     0.26000
C4996       C  0.70743384  0.64795321  0.95501985    -0.11700
C4997       C  0.70986333  0.66756559  0.95325652    -0.25700
C4998       C  0.70010788  0.67706135  0.93868699     0.36800
C4999       C  0.67534663  0.63736399  0.91302028     0.06400
F5000       F  0.69464073  0.61894682  0.94377881    -0.19500
H5001       H  0.71474536  0.64027337  0.96602798     0.16200
F5002       F  0.70142194  0.69604969  0.93659405    -0.23200
H5003       H  0.68145857  0.67476709  0.91496596     0.18000
C5004       C  0.66037558  0.62514528  0.91786153     0.26000
C5005       C  0.65000334  0.61589960  0.90368031    -0.11700
C5006       C  0.65460162  0.61854708  0.88458002    -0.25700
C5007       C  0.66926744  0.63107391  0.87976837     0.36900
C5008       C  0.67945283  0.64041107  0.89385595    -0.27400
F5009       F  0.65568960  0.62230320  0.93623147    -0.19500
H5010       H  0.63879008  0.60621981  0.90760857     0.16200
F5011       F  0.67378286  0.63422698  0.86139442    -0.23200
H5012       H  0.69081964  0.64985728  0.88979619     0.18000
C5013       C  0.79221917  0.64150284  0.06379106    -0.27200
C5014       C  0.81123664  0.64662622  0.06661192     0.06400
C5015       C  0.81947136  0.66029526  0.05487126     0.26000
C5016       C  0.80860626  0.66919290  0.04104100    -0.11700
C5017       C  0.78937793  0.66453596  0.03854535    -0.25700
C5018       C  0.78135200  0.65029800  0.04983782     0.36800
C5019       C  0.82215540  0.63822116  0.08229463     0.06400
F5020       F  0.83774914  0.66570857  0.05739541    -0.19500
H5021       H  0.81515876  0.68010919  0.03255750     0.16200
F5022       F  0.76279888  0.64557643  0.04812701    -0.23200
H5023       H  0.78569483  0.63088269  0.07266377     0.18000
C5024       C  0.81537176  0.63930964  0.10090602     0.26000
C5025       C  0.82543305  0.63092589  0.11561691    -0.11700
C5026       C  0.84238910  0.62122549  0.11206323    -0.25700
C5027       C  0.84940738  0.62050243  0.09348302     0.36900
C5028       C  0.83936107  0.62901370  0.07874904    -0.27400
F5029       F  0.79908711  0.64862988  0.10487284    -0.19500
H5030       H  0.81987739  0.63191292  0.12984303     0.16200
F5031       F  0.86537380  0.61075008  0.08935333    -0.23200
H5032       H  0.84473850  0.62797553  0.06445762     0.18000
C5033       C  0.31117679  0.79028152  0.46127108    -0.27200
C5034       C  0.30068474  0.80224843  0.44945410     0.06400
C5035       C  0.28191282  0.79731990  0.44498192     0.26000
C5036       C  0.27381392  0.78089747  0.45237775    -0.11700
C5037       C  0.28422350  0.76896367  0.46435174    -0.25700
C5038       C  0.30310422  0.77385001  0.46869095     0.36800
C5039       C  0.30965237  0.81941670  0.44134851     0.06400
F5040       F  0.27122105  0.80860514  0.43379814    -0.19500
H5041       H  0.25926680  0.77761329  0.44879934     0.16200
F5042       F  0.31375216  0.76298982  0.48033918    -0.23200
H5043       H  0.32577383  0.79357482  0.46464308     0.18000
C5044       C  0.32016930  0.83190800  0.45270872     0.26000
C5045       C  0.33016006  0.84691644  0.44457467    -0.11700
C5046       C  0.32999106  0.84980025  0.42485091    -0.25700
C5047       C  0.31839232  0.83787632  0.41373476     0.36900
C5048       C  0.30851473  0.82287345  0.42188811    -0.27400
F5049       F  0.32110498  0.82940278  0.47169969    -0.19500
H5050       H  0.33857015  0.85552194  0.45391592     0.16200
F5051       F  0.31772692  0.83985189  0.39466619    -0.23200
H5052       H  0.30066015  0.81338690  0.41277724     0.18000
C5053       C  0.18692848  0.83572599  0.54507465    -0.27200
C5054       C  0.19310220  0.82038946  0.55598139     0.06400
C5055       C  0.18857630  0.82000714  0.57527078     0.26000
C5056       C  0.17717879  0.83404814  0.58309960    -0.11700
C5057       C  0.16961615  0.84874517  0.57196968    -0.25700
C5058       C  0.17547214  0.84985211  0.55288394     0.36800
C5059       C  0.20314537  0.80429192  0.54697943     0.06400
F5060       F  0.19423145  0.80547763  0.58637370    -0.19500
H5061       H  0.17352807  0.83299066  0.59792822     0.16200
F5062       F  0.17064246  0.86443131  0.54158590    -0.23200
H5063       H  0.19083481  0.83665133  0.53030618     0.18000
C5064       C  0.19545212  0.79544984  0.53091403     0.26000
C5065       C  0.20422204  0.77964946  0.52303796    -0.11700
C5066       C  0.22076921  0.77212826  0.53104564    -0.25700
C5067       C  0.22865565  0.78111647  0.54700653     0.36900
C5068       C  0.21990724  0.79705153  0.55483371    -0.27400
F5069       F  0.17898345  0.80161893  0.52324646    -0.19500
H5070       H  0.19775818  0.77301582  0.51083602     0.16200
F5071       F  0.24494966  0.77474127  0.55487746    -0.23200
H5072       H  0.22622723  0.80375243  0.56707282     0.18000
C5073       C  0.13658287  0.69193483  0.41090127    -0.27200
C5074       C  0.15340582  0.68173499  0.41305918     0.06400
C5075       C  0.15585436  0.66500722  0.40262364     0.26000
C5076       C  0.14167094  0.65867274  0.39025820    -0.11700
C5077       C  0.12483033  0.66890478  0.38802894    -0.25700
C5078       C  0.12237121  0.68557603  0.39864528     0.36800
C5079       C  0.16789687  0.68805559  0.42691606     0.06400
F5080       F  0.17209039  0.65494152  0.40422215    -0.19500
H5081       H  0.14395319  0.64586351  0.38227330     0.16200
F5082       F  0.10590279  0.69534565  0.39782140    -0.23200
H5083       H  0.13424971  0.70461294  0.41911672     0.18000
C5084       C  0.17644578  0.70596690  0.42566750     0.26000
C5085       C  0.19046729  0.71139769  0.43867665    -0.11700
C5086       C  0.19611778  0.69909565  0.45318924    -0.25700
C5087       C  0.18687099  0.68148732  0.45481391     0.36900
C5088       C  0.17307030  0.67605461  0.44173623    -0.27400
F5089       F  0.17169629  0.71793051  0.41149697    -0.19500
H5090       H  0.19724359  0.72501946  0.43709034     0.16200
F5091       F  0.19102929  0.66947143  0.46913822    -0.23200
H5092       H  0.16630461  0.66240819  0.44322683     0.18000
C5093       C  0.31765438  0.69162765  0.57835097    -0.27200
C5094       C  0.33596381  0.68851857  0.57140904     0.06400
C5095       C  0.33991640  0.69263111  0.55239839     0.26000
C5096       C  0.32568387  0.69959864  0.54055141    -0.11700
C5097       C  0.30722949  0.70266843  0.54741639    -0.25700
C5098       C  0.30343255  0.69870321  0.56658970     0.36800
C5099       C  0.35074958  0.68080993  0.58407590     0.06400
F5100       F  0.35737550  0.68931419  0.54513152    -0.19500
H5101       H  0.32907876  0.70230060  0.52588216     0.16200
F5102       F  0.28590739  0.70125314  0.57398929    -0.23200
H5103       H  0.31437252  0.68857111  0.59298299     0.18000
C5104       C  0.36765557  0.69076209  0.58730769     0.26000
C5105       C  0.38135609  0.68350328  0.59954813    -0.11700
C5106       C  0.37847349  0.66620921  0.60886511    -0.25700
C5107       C  0.36146994  0.65629869  0.60565714     0.36900
C5108       C  0.34776214  0.66359531  0.59340267    -0.27400
F5109       F  0.37068997  0.70775577  0.57902345    -0.19500
H5110       H  0.39430894  0.69142627  0.60166979     0.16200
F5111       F  0.35770052  0.63994981  0.61486134    -0.23200
H5112       H  0.33472878  0.65581070  0.59120293     0.18000
C5113       C  0.18831936  0.67272655  0.56944948    -0.27200
C5114       C  0.18673835  0.65304479  0.56916039     0.06400
C5115       C  0.19749055  0.64272616  0.55598983     0.26000
C5116       C  0.20991618  0.65207465  0.54364510    -0.11700
C5117       C  0.21193525  0.67179952  0.54440139    -0.25700
C5118       C  0.20076435  0.68202962  0.55735291     0.36800
C5119       C  0.17475430  0.64355110  0.58350225     0.06400
F5120       F  0.19657705  0.62361011  0.55560192    -0.19500
H5121       H  0.21827973  0.64385995  0.53382850     0.16200
F5122       F  0.20166152  0.70113171  0.55830285    -0.23200
H5123       H  0.17997051  0.68096030  0.57927478     0.18000
C5124       C  0.17723989  0.64777924  0.60277089     0.26000
C5125       C  0.16669563  0.63831289  0.61643338    -0.11700
C5126       C  0.15343529  0.62451263  0.61122978    -0.25700
C5127       C  0.15028362  0.62076227  0.59199732     0.36900
C5128       C  0.16097164  0.63019431  0.57821351    -0.27400
F5129       F  0.19060111  0.66035540  0.60847523    -0.19500
H5130       H  0.16942052  0.64121153  0.63122549     0.16200
F5131       F  0.13780046  0.60719524  0.58662677    -0.23200
H5132       H  0.15871070  0.62688492  0.56344125     0.18000
C5133       C  0.29140926  0.64652306  0.42906630    -0.27200
C5134       C  0.31117613  0.64875138  0.42822702     0.06400
C5135       C  0.32025757  0.65991201  0.44190272     0.26000
C5136       C  0.30971265  0.66897485  0.45589772    -0.11700
C5137       C  0.28991391  0.66697260  0.45671242    -0.25700
C5138       C  0.28083251  0.65540398  0.44328583     0.36800
C5139       C  0.32224685  0.63987590  0.41281928     0.06400
F5140       F  0.33926807  0.66267696  0.44126258    -0.19500
H5141       H  0.31705425  0.67786269  0.46599351     0.16200
F5142       F  0.26171714  0.65342538  0.44331668    -0.23200
H5143       H  0.28416829  0.63798769  0.41860263     0.18000
C5144       C  0.33712358  0.62737998  0.41688303     0.26000
C5145       C  0.34737638  0.61897055  0.40221970    -0.11700
C5146       C  0.34302864  0.62290072  0.38331090    -0.25700
C5147       C  0.32835106  0.63564947  0.37924099     0.36900
C5148       C  0.31803882  0.64400600  0.39389091    -0.27400
F5149       F  0.34118160  0.62268311  0.43501849    -0.19500
H5150       H  0.35805490  0.60867661  0.40566275     0.16200
F5151       F  0.32389044  0.63986275  0.36107128    -0.23200
H5152       H  0.30674680  0.65372820  0.39047925     0.18000
loop_ 
_geom_bond_atom_site_label_1 
_geom_bond_atom_site_label_2 
_geom_bond_distance 
_geom_bond_site_symmetry_2 
_ccdc_geom_bond_type 
O1           C17   1.277       .  A
O1           Zn7   2.022       .  S
C2           O18   1.275       .  A
C2           O15   1.275       .  A
C2         C5097   1.490       .  S
O3           C16   1.280       .  A
O3          Cd10   2.103       .  S
O4           C22   1.275       .  A
O4          Cd13   2.052       .  S
O5           C19   1.278       .  A
O5           Cd9   2.081       .  S
O6           C17   1.278       .  A
O6           Cd9   2.077       .  S
Zn7          O18   2.027       .  S
Zn7          O20   2.001       .  S
Zn7          O12   1.919       .  S
O8           C19   1.278       .  A
O8          Cd13   2.084       .  S
Cd9          O11   2.104       .  S
Cd9          O12   1.993       .  S
Cd10         O14   2.058       .  S
Cd10         O23   2.101       .  S
Cd10         O12   1.995       .  S
O11          C21   1.280       .  A
O12         Cd13   1.975       .  S
Cd13         O15   2.074       .  S
O14          C21   1.274       .  A
C16          O20   1.274       .  A
C16        C5137   1.483       .  S
C17        C5037   1.487       .  S
C19        C5066   1.487       .  S
C21        C5086   1.489       .  S
C22          O23   1.281       .  A
C22        C5117   1.485       .  S
O24          C40   1.273       .  A
O24         Zn30   2.014   1_556  S
C25          O41   1.274       .  A
C25          O38   1.277       .  A
C25        C4917   1.481       .  S
O26          C39   1.279       .  A
O26         Cd33   2.092       .  S
O27          C45   1.279       .  A
O27         Cd36   2.093       .  S
O28          C42   1.276       .  A
O28         Cd32   2.063       .  S
O29          C40   1.276       .  A
O29         Cd32   2.088       .  S
Zn30         O41   2.005       .  S
Zn30         O43   1.986       .  S
Zn30         O35   1.914   1_554  S
O31          C42   1.276       .  A
O31         Cd36   2.069   1_556  S
Cd32         O34   2.046       .  S
Cd32         O35   1.978       .  S
Cd33         O37   2.103   1_554  S
Cd33         O46   2.070       .  S
Cd33         O35   1.997   1_554  S
O34          C44   1.273       .  A
O35         Cd36   1.997   1_556  S
Cd36         O38   2.079       .  S
O37          C44   1.281       .  A
C39          O43   1.273       .  A
C39        C5017   1.480       .  S
C40        C4977   1.492       .  S
C42        C4937   1.481       .  S
C44        C4997   1.487       .  S
C45          O46   1.276       .  A
C45        C4957   1.491       .  S
O47          C63   1.273       .  A
O47         Zn53   2.008       .  S
C48          O64   1.274       .  A
C48          O61   1.278       .  A
C48        C4817   1.478       .  S
O49          C62   1.282       .  A
O49         Cd56   2.117       .  S
O50          C68   1.280       .  A
O50         Cd59   2.094       .  S
O51          C65   1.278       .  A
O51         Cd55   2.079       .  S
O52          C63   1.276       .  A
O52         Cd55   2.084       .  S
Zn53         O64   1.999       .  S
Zn53         O66   1.991       .  S
Zn53         O58   1.904       .  S
O54          C65   1.279       .  A
O54         Cd59   2.087       .  S
Cd55         O57   2.049       .  S
Cd55         O58   1.979       .  S
Cd56         O60   2.108       .  S
Cd56         O69   2.071       .  S
Cd56         O58   1.997       .  S
O57          C67   1.274       .  A
O58         Cd59   1.999       .  S
Cd59         O61   2.089       .  S
O60          C67   1.282       .  A
C62          O66   1.272       .  A
C62        C4897   1.485       .  S
C63        C4837   1.490       .  S
C65        C4797   1.493       .  S
C67        C4877   1.490       .  S
C68          O69   1.276       .  A
C68        C4857   1.492       .  S
O70          C86   1.276       .  A
O70         Zn76   2.020       .  S
C71          O87   1.276       .  A
C71          O84   1.278       .  A
C71        C4677   1.488       .  S
O72          C85   1.279       .  A
O72         Cd79   2.087       .  S
O73          C91   1.279       .  A
O73         Cd82   2.100       .  S
O74          C88   1.280       .  A
O74         Cd78   2.081       .  S
O75          C86   1.280       .  A
O75         Cd78   2.113       .  S
Zn76         O87   2.017       .  S
Zn76         O89   1.983       .  S
Zn76         O81   1.907       .  S
O77          C88   1.276       .  A
O77         Cd82   2.061       .  S
Cd78         O80   2.063       .  S
Cd78         O81   1.978       .  S
Cd79         O83   2.097       .  S
Cd79         O92   2.055       .  S
Cd79         O81   1.991       .  S
O80          C90   1.275       .  A
O81         Cd82   1.995       .  S
Cd82         O84   2.087       .  S
O83          C90   1.279       .  A
C85          O89   1.271       .  A
C85        C4777   1.483       .  S
C86        C4717   1.500       .  S
C88        C4697   1.477       .  S
C90        C4757   1.478       .  S
C91          O92   1.274       .  A
C91        C4746   1.490       .  S
O93         C109   1.272       .  A
O93         Zn99   2.009       .  S
C94         O110   1.276       .  A
C94         O107   1.277       .  A
C94        C4557   1.485       .  S
O95         C108   1.278       .  A
O95        Cd102   2.088       .  S
O96         C114   1.281       .  A
O96        Cd105   2.109       .  S
O97         C111   1.279       .  A
O97        Cd101   2.087       .  S
O98         C109   1.276       .  A
O98        Cd101   2.085       .  S
Zn99        O110   2.008       .  S
Zn99        O112   1.997       .  S
Zn99        O104   1.921       .  S
O100        C111   1.277       .  A
O100       Cd105   2.077       .  S
Cd101       O103   2.051       .  S
Cd101       O104   1.991       .  S
Cd102       O106   2.078       .  S
Cd102       O115   2.070       .  S
Cd102       O104   1.994       .  S
O103        C113   1.275       .  A
O104       Cd105   1.996       .  S
Cd105       O107   2.076       .  S
O106        C113   1.277       .  A
C108        O112   1.273       .  A
C108       C4637   1.483       .  S
C109       C4597   1.490       .  S
C111       C4586   1.487       .  S
C113       C4666   1.476       .  S
C114        O115   1.276       .  A
C114       C4626   1.497       .  S
O116        C132   1.278       .  A
O116       Zn122   2.032       .  S
C117        O133   1.276       .  A
C117        O130   1.276       .  A
C117       C4486   1.495       .  S
O118        C131   1.282       .  A
O118       Cd125   2.107       .  S
O119        C137   1.274       .  A
O119       Cd128   2.046       .  S
O120        C134   1.276       .  A
O120       Cd124   2.068       .  S
O121        C132   1.276       .  A
O121       Cd124   2.068       .  S
Zn122       O133   2.033       .  S
Zn122       O135   2.003       .  S
Zn122       O127   1.917       .  S
O123        C134   1.277       .  A
O123       Cd128   2.070       .  S
Cd124       O126   2.098       .  S
Cd124       O127   1.993       .  S
Cd125       O129   2.065       .  S
Cd125       O138   2.108       .  S
Cd125       O127   1.993       .  S
O126        C136   1.279       .  A
O127       Cd128   1.976       .  S
Cd128       O130   2.086       .  S
O129        C136   1.274       .  A
C131        O135   1.275       .  A
C131       C4526   1.485       .  S
C132       C4437   1.484       .  S
C134       C4457   1.479       .  S
C136       C4497   1.492       .  S
C137        O138   1.282       .  A
C137       C4546   1.489       .  S
O139        C155   1.278       .  A
O139       Zn145   2.024       .  S
C140        O156   1.274       .  A
C140        O153   1.276       .  A
C140       C4377   1.489       .  S
O141        C154   1.278       .  A
O141       Cd148   2.082       .  S
O142        C160   1.274       .  A
O142       Cd151   2.050       .  S
O143        C157   1.276       .  A
O143       Cd147   2.070   1_655  S
O144        C155   1.276       .  A
O144       Cd147   2.068       .  S
Zn145       O156   2.021   1_455  S
Zn145       O158   1.991       .  S
Zn145       O150   1.914   1_455  S
O146        C157   1.278       .  A
O146       Cd151   2.074       .  S
Cd147       O149   2.086       .  S
Cd147       O150   1.984   1_455  S
Cd148       O152   2.063       .  S
Cd148       O161   2.086   1_455  S
Cd148       O150   1.987   1_455  S
O149        C159   1.278       .  A
O150       Cd151   1.969       .  S
Cd151       O153   2.078       .  S
O152        C159   1.274       .  A
C154        O158   1.274       .  A
C154       C4417   1.472       .  S
C155       C4326   1.487       .  S
C157       C4337   1.483       .  S
C159       C4357   1.485       .  S
C160        O161   1.279       .  A
C160       C4406   1.483       .  S
O162        C178   1.273       .  A
O162       Zn168   2.014       .  S
C163        O179   1.276       .  A
C163        O176   1.276       .  A
C163       C4206   1.484       .  S
O164        C177   1.280       .  A
O164       Cd171   2.098   1_565  S
O165        C183   1.278       .  A
O165       Cd174   2.092       .  S
O166        C180   1.279       .  A
O166       Cd170   2.081       .  S
O167        C178   1.278       .  A
O167       Cd170   2.095       .  S
Zn168       O179   2.016   1_545  S
Zn168       O181   1.995   1_545  S
Zn168       O173   1.910       .  S
O169        C180   1.276       .  A
O169       Cd174   2.069   1_545  S
Cd170       O172   2.042       .  S
Cd170       O173   1.978       .  S
Cd171       O175   2.095       .  S
Cd171       O184   2.060   1_545  S
Cd171       O173   1.994       .  S
O172        C182   1.273       .  A
O173       Cd174   1.991   1_545  S
Cd174       O176   2.070       .  S
O175        C182   1.280       .  A
C177        O181   1.274       .  A
C177       C4277   1.484       .  S
C178       C4246   1.493       .  S
C180       C4217   1.479       .  S
C182       C4297   1.486       .  S
C183        O184   1.274       .  A
C183       C4257   1.487       .  S
O185        C201   1.277       .  A
O185       Zn191   2.022       .  S
C186        O202   1.275       .  A
C186        O199   1.278       .  A
C186       C4117   1.493       .  S
O187        C200   1.279       .  A
O187       Cd194   2.091       .  S
O188        C206   1.275       .  A
O188       Cd197   2.059       .  S
O189        C203   1.278       .  A
O189       Cd193   2.077       .  S
O190        C201   1.278       .  A
O190       Cd193   2.087       .  S
Zn191       O202   2.023       .  S
Zn191       O204   2.011       .  S
Zn191       O196   1.921       .  S
O192        C203   1.279       .  A
O192       Cd197   2.081       .  S
Cd193       O195   2.114       .  S
Cd193       O196   2.001       .  S
Cd194       O198   2.064       .  S
Cd194       O207   2.100       .  S
Cd194       O196   1.991       .  S
O195        C205   1.281       .  A
O196       Cd197   1.986       .  S
Cd197       O199   2.097       .  S
O198        C205   1.274       .  A
C200        O204   1.275       .  A
C200       C4177   1.486       .  S
C201       C4077   1.483       .  S
C203       C4097   1.487       .  S
C205       C4146   1.498       .  S
C206        O207   1.280       .  A
C206       C4157   1.479       .  S
C208        C209   1.544       .  S
C208        C214   1.527       .  S
C208        C212   1.539       .  S
C208       C4057   1.533       .  S
C209        H216   1.085       .  S
C209        C210   1.373       .  D
C210        C211   1.547       .  S
C210       C4037   1.493       .  S
C211        C215   1.546       .  S
C211        C213   1.546       .  S
C211        H217   1.109       .  S
C212        H218   1.084       .  S
C212        C213   1.366       .  D
C213       C4137   1.491       .  S
C214        H219   1.087       .  S
C214        C215   1.362       .  D
C215       C4286   1.492       .  S
C220        C221   1.537       .  S
C220        C226   1.534       .  S
C220        C224   1.545       .  S
C220       C4017   1.532       .  S
C221        H228   1.086       .  S
C221        C222   1.369       .  D
C222        C223   1.544       .  S
C222       C4237   1.488       .  S
C223        C227   1.533       .  S
C223        C225   1.544       .  S
C223        H229   1.109       .  S
C224        H230   1.080       .  S
C224        C225   1.372       .  D
C225       C3997   1.492       .  S
C226        H231   1.087       .  S
C226        C227   1.358       .  D
C227       C4397   1.475       .  S
C232        C233   1.541       .  S
C232        C238   1.532       .  S
C232        C236   1.548       .  S
C232       C3977   1.531       .  S
C233        H240   1.085       .  S
C233        C234   1.369       .  D
C234        C235   1.543       .  S
C234       C3937   1.488       .  S
C235        C239   1.534       .  S
C235        C237   1.541       .  S
C235        H241   1.110       .  S
C236        H242   1.082       .  S
C236        C237   1.371       .  D
C237       C3957   1.490       .  S
C238        H243   1.087       .  S
C238        C239   1.357       .  D
C239       C4166   1.473       .  S
C244        C245   1.545       .  S
C244        C250   1.530       .  S
C244        C248   1.538       .  S
C244       C3917   1.530       .  S
C245        H252   1.081       .  S
C245        C246   1.367       .  D
C246        C247   1.537       .  S
C246       C3897   1.482       .  S
C247        C251   1.536       .  S
C247        C249   1.544       .  S
C247        H253   1.108       .  S
C248        H254   1.085       .  S
C248        C249   1.372       .  D
C249       C4366   1.494       .  S
C250        H255   1.087       .  S
C250        C251   1.358       .  D
C251       C4657   1.471       .  S
C256        C257   1.547       .  S
C256        C262   1.534       .  S
C256        C260   1.541       .  S
C256       C3877   1.538       .  S
C257        H264   1.081       .  S
C257        C258   1.374       .  D
C258        C259   1.550       .  S
C258       C4617   1.504       .  S
C259        C263   1.540       .  S
C259        C261   1.540       .  S
C259        H265   1.109       .  S
C260        H266   1.086       .  S
C260        C261   1.366       .  D
C261       C3857   1.477       .  S
C262        H267   1.087       .  S
C262        C263   1.361       .  D
C263       C3837   1.486       .  S
C268        C269   1.551       .  S
C268        C274   1.537       .  S
C268        C272   1.532       .  S
C268       C5057   1.538       .  S
C269        H276   1.079       .  S
C269        C270   1.374       .  D
C270        C271   1.542       .  S
C270       C3826   1.493       .  S
C271        C275   1.536       .  S
C271        C273   1.543       .  S
C271        H277   1.109       .  S
C272        H278   1.086       .  S
C272        C273   1.366       .  D
C273       C3777   1.490       .  S
C274        H279   1.087       .  S
C274        C275   1.362       .  D
C275       C3806   1.481       .  S
O280        C296   1.275       .  A
O280       Zn286   2.024   1_455  S
C281        O297   1.278       .  A
C281        O294   1.275       .  A
C281       C4046   1.495       .  S
O282        C295   1.277       .  A
O282       Cd289   2.090       .  S
O283        C301   1.274       .  A
O283       Cd292   2.060       .  S
O284        C298   1.278       .  A
O284       Cd288   2.094   1_565  S
O285        C296   1.276       .  A
O285       Cd288   2.075       .  S
Zn286       O297   2.044   1_545  S
Zn286       O299   2.007       .  S
Zn286       O291   1.951   1_655  S
O287        C298   1.276       .  A
O287       Cd292   2.074   1_455  S
Cd288       O290   2.066       .  S
Cd288       O291   2.003       .  S
Cd289       O293   2.103       .  S
Cd289       O302   2.098       .  S
Cd289       O291   2.024   1_655  S
O290        C300   1.275       .  A
O291       Cd292   1.996   1_445  S
Cd292       O294   2.077       .  S
O293        C300   1.279   1_655  A
C295        O299   1.274       .  A
C295       C4006   1.481       .  S
C296       C3906   1.489       .  S
C298       C3817   1.494       .  S
C300       C3866   1.490       .  S
C301        O302   1.279   1_565  A
C301       C3966   1.491       .  S
O303        C319   1.273       .  A
O303       Zn309   2.015       .  S
C304        O320   1.274       .  A
C304        O317   1.277       .  A
C304       C3686   1.484       .  S
O305        C318   1.282       .  A
O305       Cd312   2.109       .  S
O306        C324   1.280       .  A
O306       Cd315   2.097       .  S
O307        C321   1.277       .  A
O307       Cd311   2.073       .  S
O308        C319   1.276       .  A
O308       Cd311   2.085       .  S
Zn309       O320   1.994       .  S
Zn309       O322   1.981       .  S
Zn309       O314   1.906       .  S
O310        C321   1.278       .  A
O310       Cd315   2.083       .  S
Cd311       O313   2.052       .  S
Cd311       O314   1.975       .  S
Cd312       O316   2.105       .  S
Cd312       O325   2.078       .  S
Cd312       O314   1.994       .  S
O313        C323   1.275       .  A
O314       Cd315   1.995       .  S
Cd315       O317   2.081       .  S
O316        C323   1.282       .  A
C318        O322   1.271       .  A
C318       C3737   1.482       .  S
C319       C3697   1.491       .  S
C321       C4026   1.484       .  S
C323       C3766   1.490       .  S
C324        O325   1.277       .  A
C324       C3717   1.495       .  S
O326        C342   1.275       .  A
O326       Zn332   2.018   1_455  S
C327        O343   1.277       .  A
C327        O340   1.276       .  A
C327       C3597   1.478       .  S
O328        C341   1.280       .  A
O328       Cd335   2.097       .  S
O329        C347   1.278       .  A
O329       Cd338   2.082       .  S
O330        C344   1.279       .  A
O330       Cd334   2.085       .  S
O331        C342   1.277       .  A
O331       Cd334   2.088       .  S
Zn332       O343   2.026       .  S
Zn332       O345   2.003       .  S
Zn332       O337   1.907   1_655  S
O333        C344   1.276       .  A
O333       Cd338   2.067   1_455  S
Cd334       O336   2.053       .  S
Cd334       O337   1.980       .  S
Cd335       O339   2.093   1_655  S
Cd335       O348   2.078       .  S
Cd335       O337   1.993   1_655  S
O336        C346   1.275       .  A
O337       Cd338   1.984   1_455  S
Cd338       O340   2.077       .  S
O339        C346   1.280       .  A
C341        O345   1.275       .  A
C341       C3666   1.478       .  S
C342       C3637   1.492       .  S
C344       C3617   1.485       .  S
C346       C3797   1.482       .  S
C347        O348   1.277       .  A
C347       C3946   1.492       .  S
C349        C350   1.534       .  S
C349        C355   1.529       .  S
C349        C353   1.545       .  S
C349       C3586   1.525       .  S
C350        H357   1.086       .  S
C350        C351   1.367       .  D
C351        C352   1.547       .  S
C351       C3646   1.488       .  S
C352        C356   1.538       .  S
C352        C354   1.542       .  S
C352        H358   1.111       .  S
C353        H359   1.082       .  S
C353        C354   1.368       .  D
C354       C3557   1.482       .  S
C355        H360   1.087       .  S
C355        C356   1.358       .  D
C356       C5126   1.476       .  S
C361        C362   1.539       .  S
C361        C367   1.531       .  S
C361        C365   1.551       .  S
C361       C4577   1.533       .  S
C362        H369   1.085       .  S
C362        C363   1.366       .  D
C363        C364   1.541       .  S
C363       C4866   1.486       .  S
C364        C368   1.534       .  S
C364        C366   1.540       .  S
C364        H370   1.110       .  S
C365        H371   1.085       .  S
C365        C366   1.374       .  D
C366       C3546   1.493       .  S
C367        H372   1.087       .  S
C367        C368   1.359       .  D
C368       C4426   1.475       .  S
C373        C374   1.541       .  S
C373        C379   1.532       .  S
C373        C377   1.537       .  S
C373       C4106   1.533       .  S
C374        H381   1.084       .  S
C374        C375   1.372       .  D
C375        C376   1.547       .  S
C375       C3517   1.497       .  S
C376        C380   1.544       .  S
C376        C378   1.546       .  S
C376        H382   1.107       .  S
C377        H383   1.081       .  S
C377        C378   1.364       .  D
C378       C3497   1.490       .  S
C379        H384   1.086       .  S
C379        C380   1.366       .  D
C380       C3657   1.494       .  S
C385        C386   1.545       .  S
C385        C391   1.531       .  S
C385        C389   1.533       .  S
C385       C4466   1.530       .  S
C386        H393   1.081       .  S
C386        C387   1.370       .  D
C387        C388   1.544       .  S
C387       C3486   1.491       .  S
C388        C392   1.540       .  S
C388        C390   1.547       .  S
C388        H394   1.109       .  S
C389        H395   1.085       .  S
C389        C390   1.367       .  D
C390       C4386   1.494       .  S
C391        H396   1.087       .  S
C391        C392   1.361       .  D
C392       C3757   1.482       .  S
C397        C398   1.543       .  S
C397        C403   1.533       .  S
C397        C401   1.549       .  S
C397       C3457   1.544       .  S
C398        H405   1.085       .  S
C398        C399   1.374       .  D
C399        C400   1.548       .  S
C399       C3726   1.500       .  S
C400        C404   1.535       .  S
C400        C402   1.537       .  S
C400        H406   1.109       .  S
C401        H407   1.078       .  S
C401        C402   1.365       .  D
C402       C3437   1.478       .  S
C403        H408   1.087       .  S
C403        C404   1.361       .  D
C404       C3417   1.479       .  S
C409        C410   1.545       .  S
C409        C415   1.535       .  S
C409        C413   1.535       .  S
C409       C3406   1.537       .  S
C410        H417   1.077       .  S
C410        C411   1.368       .  D
C411        C412   1.536       .  S
C411       C3377   1.480       .  S
C412        C416   1.541       .  S
C412        C414   1.546       .  S
C412        H418   1.111       .  S
C413        H419   1.086       .  S
C413        C414   1.368       .  D
C414       C5077   1.492       .  S
C415        H420   1.087       .  S
C415        C416   1.362       .  D
C416       C4886   1.485       .  S
O421        C437   1.276       .  A
O421       Zn427   2.028       .  S
C422        O438   1.278       .  A
C422        O435   1.274       .  A
C422       C3526   1.492       .  S
O423        C436   1.279       .  A
O423       Cd430   2.099       .  S
O424        C442   1.273       .  A
O424       Cd433   2.055       .  S
O425        C439   1.275       .  A
O425       Cd429   2.082   1_655  S
O426        C437   1.275       .  A
O426       Cd429   2.064       .  S
Zn427       O438   2.054   1_455  S
Zn427       O440   2.023       .  S
Zn427       O432   1.958       .  S
O428        C439   1.274       .  A
O428       Cd433   2.066       .  S
Cd429       O431   2.069       .  S
Cd429       O432   2.001       .  S
Cd430       O434   2.103       .  S
Cd430       O443   2.096       .  S
Cd430       O432   2.020       .  S
O431        C441   1.275       .  A
O432       Cd433   1.992   1_455  S
Cd433       O435   2.060       .  S
O434        C441   1.280       .  A
C436        O440   1.275       .  A
C436       C3566   1.480       .  S
C437       C3386   1.487       .  S
C439       C3477   1.489       .  S
C441       C3537   1.495       .  S
C442        O443   1.279   1_655  A
C442       C3446   1.489       .  S
C444        C445   1.548       .  S
C444        C450   1.536       .  S
C444        C448   1.537       .  S
C444       C3366   1.532       .  S
C445        H452   1.082       .  S
C445        C446   1.372       .  D
C446        C447   1.544       .  S
C446       C3337   1.487       .  S
C447        C451   1.535       .  S
C447        C449   1.544       .  S
C447        H453   1.111       .  S
C448        H454   1.086       .  S
C448        C449   1.366       .  D
C449       C4477   1.489       .  S
C450        H455   1.087       .  S
C450        C451   1.357       .  D
C451       C4766   1.475       .  S
C456        C457   1.537       .  S
C456        C462   1.531       .  S
C456        C460   1.541       .  S
C456       C3317   1.527       .  S
C457        H464   1.085       .  S
C457        C458   1.370       .  D
C458        C459   1.548       .  S
C458       C4966   1.498       .  S
C459        C463   1.539       .  S
C459        C461   1.544       .  S
C459        H465   1.109       .  S
C460        H466   1.083       .  S
C460        C461   1.365       .  D
C461       C3306   1.478       .  S
C462        H467   1.087       .  S
C462        C463   1.360       .  D
C463       C4517   1.480       .  S
C468        C469   1.548       .  S
C468        C474   1.535       .  S
C468        C472   1.536       .  S
C468       C3277   1.529       .  S
C469        H476   1.082       .  S
C469        C470   1.370       .  D
C470        C471   1.538       .  S
C470       C3257   1.484       .  S
C471        C475   1.535       .  S
C471        C473   1.541       .  S
C471        H477   1.110       .  S
C472        H478   1.086       .  S
C472        C473   1.365       .  D
C473       C3217   1.485       .  S
C474        H479   1.087       .  S
C474        C475   1.361       .  D
C475       C3237   1.479       .  S
C480        C481   1.536       .  S
C480        C486   1.530       .  S
C480        C484   1.544       .  S
C480       C3197   1.532       .  S
C481        H488   1.085       .  S
C481        C482   1.367       .  D
C482        C483   1.552       .  S
C482       C3157   1.493       .  S
C483        C487   1.542       .  S
C483        C485   1.548       .  S
C483        H489   1.109       .  S
C484        H490   1.082       .  S
C484        C485   1.372       .  D
C485       C3177   1.502       .  S
C486        H491   1.087       .  S
C486        C487   1.361       .  D
C487       C3137   1.486       .  S
C492        C493   1.537       .  S
C492        C498   1.532       .  S
C492        C496   1.543       .  S
C492       C3117   1.531       .  S
C493        H500   1.086       .  S
C493        C494   1.371       .  D
C494        C495   1.548       .  S
C494       C3106   1.496       .  S
C495        C499   1.540       .  S
C495        C497   1.546       .  S
C495        H501   1.109       .  S
C496        H502   1.081       .  S
C496        C497   1.365       .  D
C497       C3077   1.486       .  S
C498        H503   1.087       .  S
C498        C499   1.360       .  D
C499       C5006   1.480       .  S
C504        C505   1.546       .  S
C504        C510   1.537       .  S
C504        C508   1.539       .  S
C504       C4826   1.534       .  S
C505        H512   1.079       .  S
C505        C506   1.368       .  D
C506        C507   1.536       .  S
C506       C4737   1.480       .  S
C507        C511   1.534       .  S
C507        C509   1.538       .  S
C507        H513   1.110       .  S
C508        H514   1.086       .  S
C508        C509   1.370       .  D
C509       C3066   1.485       .  S
C510        H515   1.086       .  S
C510        C511   1.359       .  D
C511       C3037   1.480       .  S
O516        C532   1.276       .  A
O516       Zn522   2.034       .  S
C517        O533   1.275       .  A
C517        O530   1.274       .  A
C517       C3297   1.487       .  S
O518        C531   1.277       .  A
O518       Cd525   2.083       .  S
O519        C537   1.274       .  A
O519       Cd528   2.060       .  S
O520        C534   1.276       .  A
O520       Cd524   2.075   1_554  S
O521        C532   1.276       .  A
O521       Cd524   2.082       .  S
Zn522       O533   2.031   1_556  S
Zn522       O535   2.012       .  S
Zn522       O527   1.946       .  S
O523        C534   1.275       .  A
O523       Cd528   2.068       .  S
Cd524       O526   2.057       .  S
Cd524       O527   1.996       .  S
Cd525       O529   2.094       .  S
Cd525       O538   2.096       .  S
Cd525       O527   2.018       .  S
O526        C536   1.274       .  A
O527       Cd528   1.995   1_556  S
Cd528       O530   2.062       .  S
O529        C536   1.278       .  A
C531        O535   1.275       .  A
C531       C3097   1.486       .  S
C532       C3186   1.489       .  S
C534       C3057   1.487       .  S
C536       C3266   1.489       .  S
C537        O538   1.278   1_554  A
C537       C3346   1.491       .  S
O539        C555   1.272       .  A
O539       Zn545   2.004       .  S
C540        O556   1.274       .  A
C540        O553   1.276       .  A
C540       C3577   1.481       .  S
O541        C554   1.278       .  A
O541       Cd548   2.096       .  S
O542        C560   1.280       .  A
O542       Cd551   2.106       .  S
O543        C557   1.279       .  A
O543       Cd547   2.086       .  S
O544        C555   1.277       .  A
O544       Cd547   2.090       .  S
Zn545       O556   1.993       .  S
Zn545       O558   1.975       .  S
Zn545       O550   1.911       .  S
O546        C557   1.278       .  A
O546       Cd551   2.081       .  S
Cd547       O549   2.057       .  S
Cd547       O550   1.985       .  S
Cd548       O552   2.085       .  S
Cd548       O561   2.064       .  S
Cd548       O550   1.993       .  S
O549        C559   1.276       .  A
O550       Cd551   1.997       .  S
Cd551       O553   2.075       .  S
O552        C559   1.278       .  A
C554        O558   1.270       .  A
C554       C3017   1.484       .  S
C555       C2997   1.491       .  S
C557       C2977   1.490       .  S
C559       C3246   1.484       .  S
C560        O561   1.275       .  A
C560       C3166   1.495       .  S
C562        C563   1.542       .  S
C562        C568   1.535       .  S
C562        C566   1.543       .  S
C562       C4086   1.533       .  S
C563        H570   1.086       .  S
C563        C564   1.369       .  D
C564        C565   1.542       .  S
C564       C2966   1.487       .  S
C565        C569   1.536       .  S
C565        C567   1.545       .  S
C565        H571   1.111       .  S
C566        H572   1.082       .  S
C566        C567   1.369       .  D
C567       C4506   1.486       .  S
C568        H573   1.087       .  S
C568        C569   1.360       .  D
C569       C2937   1.485       .  S
C574        C575   1.551       .  S
C574        C580   1.533       .  S
C574        C578   1.533       .  S
C574       C2926   1.532       .  S
C575        H582   1.082       .  S
C575        C576   1.370       .  D
C576        C577   1.540       .  S
C576       C2897   1.486       .  S
C577        C581   1.538       .  S
C577        C579   1.547       .  S
C577        H583   1.110       .  S
C578        H584   1.086       .  S
C578        C579   1.365       .  D
C579       C2877   1.484       .  S
C580        H585   1.086       .  S
C580        C581   1.363       .  D
C581       C3746   1.491       .  S
C586        C587   1.550       .  S
C586        C592   1.532       .  S
C586        C590   1.536       .  S
C586       C2857   1.530       .  S
C587        H594   1.082       .  S
C587        C588   1.373       .  D
C588        C589   1.541       .  S
C588       C2846   1.491       .  S
C589        C593   1.533       .  S
C589        C591   1.543       .  S
C589        H595   1.108       .  S
C590        H596   1.086       .  S
C590        C591   1.367       .  D
C591       C5106   1.490       .  S
C592        H597   1.087       .  S
C592        C593   1.356       .  D
C593       C3026   1.469       .  S
C598        C599   1.546       .  S
C598        C604   1.532       .  S
C598        C602   1.539       .  S
C598       C4806   1.534       .  S
C599        H606   1.082       .  S
C599        C600   1.371       .  D
C600        C601   1.545       .  S
C600       C2806   1.489       .  S
C601        C605   1.541       .  S
C601        C603   1.547       .  S
C601        H607   1.109       .  S
C602        H608   1.085       .  S
C602        C603   1.371       .  D
C603       C2826   1.500       .  S
C604        H609   1.087       .  S
C604        C605   1.358       .  D
C605       C5146   1.482       .  S
C610        C611   1.538       .  S
C610        C616   1.532       .  S
C610        C614   1.543       .  S
C610       C4706   1.530       .  S
C611        H618   1.085       .  S
C611        C612   1.369       .  D
C612        C613   1.546       .  S
C612       C3706   1.489       .  S
C613        C617   1.537       .  S
C613        C615   1.539       .  S
C613        H619   1.110       .  S
C614        H620   1.081       .  S
C614        C615   1.367       .  D
C615       C2777   1.484       .  S
C616        H621   1.087       .  S
C616        C617   1.362       .  D
C617       C4537   1.480       .  S
C622        C623   1.534       .  S
C622        C628   1.531       .  S
C622        C626   1.547       .  S
C622       C4566   1.530       .  S
C623        H630   1.086       .  S
C623        C624   1.369       .  D
C624        C625   1.547       .  S
C624       C3006   1.490       .  S
C625        C629   1.535       .  S
C625        C627   1.544       .  S
C625        H631   1.109       .  S
C626        H632   1.081       .  S
C626        C627   1.371       .  D
C627       C2757   1.494       .  S
C628        H633   1.087       .  S
C628        C629   1.358       .  D
C629       C2737   1.473       .  S
O634        C650   1.277       .  A
O634       Zn640   2.043       .  S
C635        O651   1.276       .  A
C635        O648   1.275       .  A
C635       C2786   1.488       .  S
O636        C649   1.279       .  A
O636       Cd643   2.105       .  S
O637        C655   1.274       .  A
O637       Cd646   2.065       .  S
O638        C652   1.277       .  A
O638       Cd642   2.085       .  S
O639        C650   1.277       .  A
O639       Cd642   2.082       .  S
Zn640       O651   2.037       .  S
Zn640       O653   2.021       .  S
Zn640       O645   1.956       .  S
O641        C652   1.275       .  A
O641       Cd646   2.079       .  S
Cd642       O644   2.063       .  S
Cd642       O645   2.002       .  S
Cd643       O647   2.100       .  S
Cd643       O656   2.105       .  S
Cd643       O645   2.026       .  S
O644        C654   1.275       .  A
O645       Cd646   1.999       .  S
Cd646       O648   2.065       .  S
O647        C654   1.280       .  A
C649        O653   1.276       .  A
C649       C2906   1.495       .  S
C650       C2766   1.495       .  S
C652       C2817   1.493       .  S
C654       C2837   1.492       .  S
C655        O656   1.280       .  A
C655       C2957   1.494       .  S
O657        C673   1.275       .  A
O657       Zn663   2.014       .  S
C658        O674   1.274       .  A
C658        O671   1.276       .  A
C658       C3086   1.484       .  S
O659        C672   1.280       .  A
O659       Cd666   2.096       .  S
O660        C678   1.273       .  A
O660       Cd669   2.048       .  S
O661        C675   1.276       .  A
O661       Cd665   2.070       .  S
O662        C673   1.277       .  A
O662       Cd665   2.078       .  S
Zn663       O674   2.016       .  S
Zn663       O676   2.000       .  S
Zn663       O668   1.914       .  S
O664        C675   1.277       .  A
O664       Cd669   2.072       .  S
Cd665       O667   2.092       .  S
Cd665       O668   1.995       .  S
Cd666       O670   2.057       .  S
Cd666       O679   2.100       .  S
Cd666       O668   1.991       .  S
O667        C677   1.278       .  A
O668       Cd669   1.975       .  S
Cd669       O671   2.081       .  S
O670        C677   1.274       .  A
C672        O676   1.275       .  A
C672       C3146   1.485       .  S
C673       C2866   1.487       .  S
C675       C2677   1.481       .  S
C677       C2697   1.490       .  S
C678        O679   1.280       .  A
C678       C2717   1.485       .  S
O680        C696   1.275       .  A
O680       Zn686   2.007   1_565  S
C681        O697   1.274       .  A
C681        O694   1.275       .  A
C681       C2597   1.487       .  S
O682        C695   1.281       .  A
O682       Cd689   2.101   1_565  S
O683        C701   1.274       .  A
O683       Cd692   2.046       .  S
O684        C698   1.277       .  A
O684       Cd688   2.077   1_545  S
O685        C696   1.279       .  A
O685       Cd688   2.086       .  S
Zn686       O697   2.012       .  S
Zn686       O699   2.000   1_545  S
Zn686       O691   1.912       .  S
O687        C698   1.277       .  A
O687       Cd692   2.067       .  S
Cd688       O690   2.110       .  S
Cd688       O691   1.996   1_565  S
Cd689       O693   2.064   1_545  S
Cd689       O702   2.107       .  S
Cd689       O691   1.985       .  S
O690        C700   1.281       .  A
O691       Cd692   1.973       .  S
Cd692       O694   2.079       .  S
O693        C700   1.275       .  A
C695        O699   1.274       .  A
C695       C2646   1.486       .  S
C696       C2586   1.487       .  S
C698       C3926   1.479       .  S
C700       C2617   1.497       .  S
C701        O702   1.281       .  A
C701       C2666   1.488       .  S
O703        C719   1.274       .  A
O703       Zn709   2.014   1_556  S
C704        O720   1.278       .  A
C704        O717   1.277       .  A
C704       C2477   1.491       .  S
O705        C718   1.279       .  A
O705       Cd712   2.093       .  S
O706        C724   1.280       .  A
O706       Cd715   2.101       .  S
O707        C721   1.278       .  A
O707       Cd711   2.077       .  S
O708        C719   1.276       .  A
O708       Cd711   2.084       .  S
Zn709       O720   2.031       .  S
Zn709       O722   2.000       .  S
Zn709       O714   1.916   1_554  S
O710        C721   1.277       .  A
O710       Cd715   2.073   1_556  S
Cd711       O713   2.043       .  S
Cd711       O714   1.981       .  S
Cd712       O716   2.101   1_554  S
Cd712       O725   2.059       .  S
Cd712       O714   1.995   1_554  S
O713        C723   1.273       .  A
O714       Cd715   1.994   1_556  S
Cd715       O717   2.081       .  S
O716        C723   1.279       .  A
C718        O722   1.275       .  A
C718       C2557   1.486       .  S
C719       C2517   1.491       .  S
C721       C3206   1.479       .  S
C723       C2546   1.485       .  S
C724        O725   1.274       .  A
C724       C2506   1.490       .  S
C726        C727   1.549       .  S
C726        C732   1.533       .  S
C726        C730   1.532       .  S
C726       C2466   1.530       .  S
C727        H734   1.081       .  S
C727        C728   1.372       .  D
C728        C729   1.541       .  S
C728       C2446   1.488       .  S
C729        C733   1.536       .  S
C729        C731   1.546       .  S
C729        H735   1.110       .  S
C730        H736   1.086       .  S
C730        C731   1.365       .  D
C731       C2706   1.484       .  S
C732        H737   1.087       .  S
C732        C733   1.360       .  D
C733       C2537   1.481       .  S
C738        C739   1.542       .  S
C738        C744   1.528       .  S
C738        C742   1.538       .  S
C738       C4946   1.527       .  S
C739        H746   1.080       .  S
C739        C740   1.370       .  D
C740        C741   1.548       .  S
C740       C2397   1.492       .  S
C741        C745   1.536       .  S
C741        C743   1.547       .  S
C741        H747   1.107       .  S
C742        H748   1.085       .  S
C742        C743   1.370       .  D
C743       C2417   1.496       .  S
C744        H749   1.087       .  S
C744        C745   1.357       .  D
C745       C2726   1.477       .  S
C750        C751   1.543       .  S
C750        C756   1.535       .  S
C750        C754   1.542       .  S
C750       C2386   1.532       .  S
C751        H758   1.080       .  S
C751        C752   1.365       .  D
C752        C753   1.541       .  S
C752       C2497   1.490       .  S
C753        C757   1.533       .  S
C753        C755   1.544       .  S
C753        H759   1.110       .  S
C754        H760   1.085       .  S
C754        C755   1.373       .  D
C755       C2366   1.489       .  S
C756        H761   1.087       .  S
C756        C757   1.360       .  D
C757       C2637   1.476       .  S
C762        C763   1.552       .  S
C762        C768   1.534       .  S
C762        C766   1.537       .  S
C762       C2346   1.535       .  S
C763        H770   1.081       .  S
C763        C764   1.375       .  D
C764        C765   1.540       .  S
C764       C2317   1.494       .  S
C765        C769   1.530       .  S
C765        C767   1.541       .  S
C765        H771   1.110       .  S
C766        H772   1.086       .  S
C766        C767   1.367       .  D
C767       C2606   1.487       .  S
C768        H773   1.087       .  S
C768        C769   1.357       .  D
C769       C4786   1.466       .  S
C774        C775   1.544       .  S
C774        C780   1.531       .  S
C774        C778   1.541       .  S
C774       C2306   1.530       .  S
C775        H782   1.085       .  S
C775        C776   1.373       .  D
C776        C777   1.545       .  S
C776       C2286   1.494       .  S
C777        C781   1.536       .  S
C777        C779   1.541       .  S
C777        H783   1.109       .  S
C778        H784   1.084       .  S
C778        C779   1.366       .  D
C779       C2266   1.487       .  S
C780        H785   1.087       .  S
C780        C781   1.360       .  D
C781       C2246   1.479       .  S
C786        C787   1.539       .  S
C786        C792   1.526       .  S
C786        C790   1.537       .  S
C786       C4226   1.531       .  S
C787        H794   1.085       .  S
C787        C788   1.369       .  D
C788        C789   1.551       .  S
C788       C4726   1.496       .  S
C789        C793   1.540       .  S
C789        C791   1.554       .  S
C789        H795   1.108       .  S
C790        H796   1.083       .  S
C790        C791   1.371       .  D
C791       C2226   1.500       .  S
C792        H797   1.087       .  S
C792        C793   1.360       .  D
C793       C2206   1.481       .  S
O798        C814   1.276       .  A
O798       Zn804   2.031   1_565  S
C799        O815   1.277       .  A
C799        O812   1.276       .  A
C799       C2277   1.492       .  S
O800        C813   1.274       .  A
O800       Cd807   2.077   1_556  S
O801        C819   1.274       .  A
O801       Cd810   2.060       .  S
O802        C816   1.277       .  A
O802       Cd806   2.089       .  S
O803        C814   1.277       .  A
O803       Cd806   2.073   1_566  S
Zn804       O815   2.033       .  S
Zn804       O817   2.033   1_545  S
Zn804       O809   1.950       .  S
O805        C816   1.275       .  A
O805       Cd810   2.077       .  S
Cd806       O808   2.071   1_545  S
Cd806       O809   2.002   1_554  S
Cd807       O811   2.078       .  S
Cd807       O820   2.086   1_565  S
Cd807       O809   2.013   1_564  S
O808        C818   1.275       .  A
O809       Cd810   1.999   1_556  S
Cd810       O812   2.079   1_554  S
O811        C818   1.276       .  A
C813        O817   1.275       .  A
C813       C2426   1.475       .  S
C814       C2437   1.489       .  S
C816       C2326   1.494       .  S
C818       C2357   1.488       .  S
C819        O820   1.276       .  A
C819       C2217   1.469       .  S
O821        C837   1.277       .  A
O821       Zn827   2.018       .  S
C822        O838   1.275       .  A
C822        O835   1.274       .  A
C822       C2126   1.488       .  S
O823        C836   1.282       .  A
O823       Cd830   2.112       .  S
O824        C842   1.275       .  A
O824       Cd833   2.047       .  S
O825        C839   1.278       .  A
O825       Cd829   2.088   1_455  S
O826        C837   1.278       .  A
O826       Cd829   2.087       .  S
Zn827       O838   2.022   1_655  S
Zn827       O840   1.992       .  S
Zn827       O832   1.912   1_655  S
O828        C839   1.276       .  A
O828       Cd833   2.067       .  S
Cd829       O831   2.097       .  S
Cd829       O832   1.994   1_655  S
Cd830       O834   2.065       .  S
Cd830       O843   2.116   1_655  S
Cd830       O832   2.000   1_655  S
O831        C841   1.280       .  A
O832       Cd833   1.971       .  S
Cd833       O835   2.070       .  S
O834        C841   1.275       .  A
C836        O840   1.273       .  A
C836       C2157   1.488       .  S
C837       C4066   1.488       .  S
C839       C3397   1.485       .  S
C841       C2137   1.488       .  S
C842        O843   1.283       .  A
C842       C2177   1.492       .  S
O844        C860   1.277       .  A
O844       Zn850   2.017       .  S
C845        O861   1.276       .  A
C845        O858   1.275       .  A
C845       C2077   1.493       .  S
O846        C859   1.279       .  A
O846       Cd853   2.091       .  S
O847        C865   1.275       .  A
O847       Cd856   2.047       .  S
O848        C862   1.276       .  A
O848       Cd852   2.076   1_554  S
O849        C860   1.277       .  A
O849       Cd852   2.077       .  S
Zn850       O861   2.034   1_556  S
Zn850       O863   1.996       .  S
Zn850       O855   1.923   1_556  S
O851        C862   1.278       .  A
O851       Cd856   2.079       .  S
Cd852       O854   2.098       .  S
Cd852       O855   1.995   1_556  S
Cd853       O857   2.063       .  S
Cd853       O866   2.092   1_556  S
Cd853       O855   1.994   1_556  S
O854        C864   1.279       .  A
O855       Cd856   1.976       .  S
Cd856       O858   2.077       .  S
O857        C864   1.275       .  A
C859        O863   1.273       .  A
C859       C2106   1.483       .  S
C860       C2057   1.482       .  S
C862       C3357   1.482       .  S
C864       C2257   1.491       .  S
C865        O866   1.279       .  A
C865       C2197   1.486       .  S
O867        C883   1.277       .  A
O867       Zn873   2.014       .  S
C868        O884   1.273       .  A
C868        O881   1.275       .  A
C868       C3786   1.488       .  S
O869        C882   1.281       .  A
O869       Cd876   2.108       .  S
O870        C888   1.273       .  A
O870       Cd879   2.044       .  S
O871        C885   1.278       .  A
O871       Cd875   2.087   1_565  S
O872        C883   1.280       .  A
O872       Cd875   2.094       .  S
Zn873       O884   2.016   1_545  S
Zn873       O886   2.002       .  S
Zn873       O878   1.915       .  S
O874        C885   1.276       .  A
O874       Cd879   2.068       .  S
Cd875       O877   2.102       .  S
Cd875       O878   1.999       .  S
Cd876       O880   2.061       .  S
Cd876       O889   2.102   1_545  S
Cd876       O878   1.992       .  S
O877        C887   1.281       .  A
O878       Cd879   1.975   1_545  S
Cd879       O881   2.069       .  S
O880        C887   1.275       .  A
C882        O886   1.274       .  A
C882       C3846   1.489       .  S
C883       C2006   1.491       .  S
C885       C2457   1.484       .  S
C887       C2026   1.492       .  S
C888        O889   1.280       .  A
C888       C2046   1.486       .  S
C890        C891   1.542       .  S
C890        C896   1.531       .  S
C890        C894   1.542       .  S
C890       C1986   1.535       .  S
C891        H898   1.085       .  S
C891        C892   1.374       .  D
C892        C893   1.548       .  S
C892       C1966   1.502       .  S
C893        C897   1.545       .  S
C893        C895   1.543       .  S
C893        H899   1.109       .  S
C894        H900   1.081       .  S
C894        C895   1.365       .  D
C895       C2017   1.485       .  S
C896        H901   1.087       .  S
C896        C897   1.360       .  D
C897       C1946   1.489       .  S
C902        C903   1.542       .  S
C902        C908   1.533       .  S
C902        C906   1.532       .  S
C902       C2577   1.528       .  S
C903        H910   1.082       .  S
C903        C904   1.365       .  D
C904        C905   1.544       .  S
C904       C1926   1.476       .  S
C905        C909   1.544       .  S
C905        C907   1.545       .  S
C905        H911   1.108       .  S
C906        H912   1.086       .  S
C906        C907   1.364       .  D
C907       C2117   1.486       .  S
C908        H913   1.086       .  S
C908        C909   1.368       .  D
C909       C2566   1.497       .  S
C914        C915   1.543       .  S
C914        C920   1.534       .  S
C914        C918   1.538       .  S
C914       C4346   1.534       .  S
C915        H922   1.081       .  S
C915        C916   1.367       .  D
C916        C917   1.540       .  S
C916       C1897   1.476       .  S
C917        C921   1.538       .  S
C917        C919   1.544       .  S
C917        H923   1.108       .  S
C918        H924   1.086       .  S
C918        C919   1.371       .  D
C919       C2086   1.497       .  S
C920        H925   1.086       .  S
C920        C921   1.361       .  D
C921       C4306   1.483       .  S
C926        C927   1.540       .  S
C926        C932   1.532       .  S
C926        C930   1.546       .  S
C926       C4926   1.530       .  S
C927        H934   1.082       .  S
C927        C928   1.367       .  D
C928        C929   1.545       .  S
C928       C4266   1.490       .  S
C929        C933   1.535       .  S
C929        C931   1.543       .  S
C929        H935   1.110       .  S
C930        H936   1.085       .  S
C930        C931   1.371       .  D
C931       C1886   1.490       .  S
C932        H937   1.087       .  S
C932        C933   1.359       .  D
C933       C2166   1.477       .  S
C938        C939   1.544       .  S
C938        C944   1.531       .  S
C938        C942   1.541       .  S
C938       C3626   1.533       .  S
C939        H946   1.082       .  S
C939        C940   1.371       .  D
C940        C941   1.545       .  S
C940       C2526   1.493       .  S
C941        C945   1.537       .  S
C941        C943   1.548       .  S
C941        H947   1.109       .  S
C942        H948   1.085       .  S
C942        C943   1.370       .  D
C943       C1857   1.493       .  S
C944        H949   1.087       .  S
C944        C945   1.358       .  D
C945       C2037   1.479       .  S
C950        C951   1.540       .  S
C950        C956   1.531       .  S
C950        C954   1.540       .  S
C950       C1846   1.530       .  S
C951        H958   1.082       .  S
C951        C952   1.365       .  D
C952        C953   1.541       .  S
C952       C1797   1.483       .  S
C953        C957   1.536       .  S
C953        C955   1.543       .  S
C953        H959   1.111       .  S
C954        H960   1.086       .  S
C954        C955   1.370       .  D
C955       C1826   1.485       .  S
C956        H961   1.087       .  S
C956        C957   1.363       .  D
C957       C2097   1.480       .  S
O962        C978   1.275       .  A
O962       Zn968   2.033   1_554  S
C963        O979   1.276       .  A
C963        O976   1.275       .  A
C963       C1957   1.493       .  S
O964        C977   1.279       .  A
O964       Cd971   2.095   1_545  S
O965        C983   1.274       .  A
O965       Cd974   2.060   1_565  S
O966        C980   1.275       .  A
O966       Cd970   2.068   1_465  S
O967        C978   1.275       .  A
O967       Cd970   2.069       .  S
Zn968       O979   2.037   1_655  S
Zn968       O981   2.000       .  S
Zn968       O973   1.949   1_556  S
O969        C980   1.276       .  A
O969       Cd974   2.073   1_564  S
Cd970       O972   2.058   1_545  S
Cd970       O973   1.995       .  S
Cd971       O975   2.105   1_556  S
Cd971       O984   2.103       .  S
Cd971       O973   2.025   1_566  S
O972        C982   1.274       .  A
O973       Cd974   1.996   1_654  S
Cd974       O976   2.075       .  S
O975        C982   1.279       .  A
C977        O981   1.274       .  A
C977       C1817   1.487       .  S
C978       C1906   1.485       .  S
C980       C1917   1.480       .  S
C982       C1877   1.493       .  S
C983        O984   1.279   1_455  A
C983       C1866   1.493       .  S
O985       C1001   1.277       .  A
O985       Zn991   2.021       .  S
C986       O1002   1.276       .  A
C986        O999   1.278       .  A
C986       C1757   1.495       .  S
O987       C1000   1.279       .  A
O987       Cd994   2.094       .  S
O988       C1006   1.276       .  A
O988       Cd997   2.060       .  S
O989       C1003   1.277       .  A
O989       Cd993   2.077   1_554  S
O990       C1001   1.277       .  A
O990       Cd993   2.074       .  S
Zn991      O1002   2.027   1_556  S
Zn991      O1004   1.995       .  S
Zn991       O996   1.921       .  S
O992       C1003   1.280       .  A
O992       Cd997   2.092       .  S
Cd993       O995   2.097       .  S
Cd993       O996   1.994       .  S
Cd994       O998   2.058       .  S
Cd994      O1007   2.088   1_556  S
Cd994       O996   1.997       .  S
O995       C1005   1.279       .  A
O996       Cd997   1.981   1_556  S
Cd997       O999   2.093       .  S
O998       C1005   1.274       .  A
C1000      O1004   1.273       .  A
C1000      C1777   1.485       .  S
C1001      C1977   1.477       .  S
C1003      C2337   1.489       .  S
C1005      C3226   1.491       .  S
C1006      O1007   1.278       .  A
C1006      C3046   1.483       .  S
O1008      C1024   1.277       .  A
O1008     Zn1014   2.022       .  S
C1009      O1025   1.274       .  A
C1009      O1022   1.277       .  A
C1009      C3506   1.491       .  S
O1010      C1023   1.279       .  A
O1010     Cd1017   2.090       .  S
O1011      C1029   1.274       .  A
O1011     Cd1020   2.057       .  S
O1012      C1026   1.276       .  A
O1012     Cd1016   2.074       .  S
O1013      C1024   1.278       .  A
O1013     Cd1016   2.081       .  S
Zn1014     O1025   2.015       .  S
Zn1014     O1027   1.997       .  S
Zn1014     O1019   1.917       .  S
O1015      C1026   1.278       .  A
O1015     Cd1020   2.070       .  S
Cd1016     O1018   2.100       .  S
Cd1016     O1019   1.997       .  S
Cd1017     O1021   2.058       .  S
Cd1017     O1030   2.091       .  S
Cd1017     O1019   1.989       .  S
O1018      C1028   1.280       .  A
O1019     Cd1020   1.979       .  S
Cd1020     O1022   2.087       .  S
O1021      C1028   1.274       .  A
C1023      O1027   1.274       .  A
C1023      C3426   1.478       .  S
C1024      C2917   1.489       .  S
C1026      C3126   1.486       .  S
C1028      C1726   1.491       .  S
C1029      O1030   1.279       .  A
C1029      C1737   1.489       .  S
O1031      C1047   1.274       .  A
O1031     Zn1037   2.007   1_655  S
C1032      O1048   1.276       .  A
C1032      O1045   1.280       .  A
C1032      C3886   1.489       .  S
O1033      C1046   1.279       .  A
O1033     Cd1040   2.099       .  S
O1034      C1052   1.282       .  A
O1034     Cd1043   2.112       .  S
O1035      C1049   1.279       .  A
O1035     Cd1039   2.087       .  S
O1036      C1047   1.276       .  A
O1036     Cd1039   2.085       .  S
Zn1037     O1048   2.016       .  S
Zn1037     O1050   1.996       .  S
Zn1037     O1042   1.919   1_455  S
O1038      C1049   1.280       .  A
O1038     Cd1043   2.097   1_655  S
Cd1039     O1041   2.065       .  S
Cd1039     O1042   1.985       .  S
Cd1040     O1044   2.100   1_455  S
Cd1040     O1053   2.056       .  S
Cd1040     O1042   2.000   1_455  S
O1041      C1051   1.276       .  A
O1042     Cd1043   2.001   1_655  S
Cd1043     O1045   2.099       .  S
O1044      C1051   1.280       .  A
C1046      O1050   1.272       .  A
C1046      C1937   1.483       .  S
C1047      C1806   1.489       .  S
C1049      C3466   1.490       .  S
C1051      C1697   1.490       .  S
C1052      O1053   1.275       .  A
C1052      C1677   1.493       .  S
C1054      C1055   1.543       .  S
C1054      C1060   1.528       .  S
C1054      C1058   1.544       .  S
C1054      C2066   1.529       .  S
C1055      H1062   1.085       .  S
C1055      C1056   1.368       .  D
C1056      C1057   1.540       .  S
C1056      C1657   1.481       .  S
C1057      C1061   1.538       .  S
C1057      C1059   1.543       .  S
C1057      H1063   1.110       .  S
C1058      H1064   1.083       .  S
C1058      C1059   1.369       .  D
C1059      C1717   1.487       .  S
C1060      H1065   1.087       .  S
C1060      C1061   1.359       .  D
C1061      C1706   1.481       .  S
C1066      C1067   1.541       .  S
C1066      C1072   1.531       .  S
C1066      C1070   1.545       .  S
C1066      C2986   1.534       .  S
C1067      H1074   1.083       .  S
C1067      C1068   1.366       .  D
C1068      C1069   1.541       .  S
C1068      C1686   1.486       .  S
C1069      C1073   1.541       .  S
C1069      C1071   1.541       .  S
C1069      H1075   1.110       .  S
C1070      H1076   1.086       .  S
C1070      C1071   1.370       .  D
C1071      C1637   1.485       .  S
C1072      H1077   1.086       .  S
C1072      C1073   1.364       .  D
C1073      C1786   1.489       .  S
C1078      C1079   1.538       .  S
C1078      C1084   1.535       .  S
C1078      C1082   1.538       .  S
C1078      C3606   1.534       .  S
C1079      H1086   1.082       .  S
C1079      C1080   1.365       .  D
C1080      C1081   1.549       .  S
C1080      C4986   1.487       .  S
C1081      C1085   1.547       .  S
C1081      C1083   1.544       .  S
C1081      H1087   1.107       .  S
C1082      H1088   1.086       .  S
C1082      C1083   1.368       .  D
C1083      C1617   1.490       .  S
C1084      H1089   1.086       .  S
C1084      C1085   1.368       .  D
C1085      C1746   1.502       .  S
C1090      C1091   1.544       .  S
C1090      C1096   1.528       .  S
C1090      C1094   1.535       .  S
C1090      C4317   1.533       .  S
C1091      H1098   1.082       .  S
C1091      C1092   1.367       .  D
C1092      C1093   1.541       .  S
C1092      C1606   1.481       .  S
C1093      C1097   1.546       .  S
C1093      C1095   1.554       .  S
C1093      H1099   1.107       .  S
C1094      H1100   1.085       .  S
C1094      C1095   1.371       .  D
C1095      C1766   1.504       .  S
C1096      H1101   1.086       .  S
C1096      C1097   1.363       .  D
C1097      C4906   1.495       .  S
C1102      C1103   1.540       .  S
C1102      C1108   1.531       .  S
C1102      C1106   1.546       .  S
C1102      C4446   1.531       .  S
C1103      H1110   1.086       .  S
C1103      C1104   1.365       .  D
C1104      C1105   1.537       .  S
C1104      C1586   1.476       .  S
C1105      C1109   1.538       .  S
C1105      C1107   1.543       .  S
C1105      H1111   1.109       .  S
C1106      H1112   1.082       .  S
C1106      C1107   1.372       .  D
C1107      C2146   1.494       .  S
C1108      H1113   1.087       .  S
C1108      C1109   1.361       .  D
C1109      C5026   1.483       .  S
C1114      C1115   1.537       .  S
C1114      C1120   1.533       .  S
C1114      C1118   1.543       .  S
C1114      C2486   1.533       .  S
C1115      H1122   1.086       .  S
C1115      C1116   1.369       .  D
C1116      C1117   1.544       .  S
C1116      C4846   1.489       .  S
C1117      C1121   1.539       .  S
C1117      C1119   1.543       .  S
C1117      H1123   1.110       .  S
C1118      H1124   1.081       .  S
C1118      C1119   1.369       .  D
C1119      C1566   1.486       .  S
C1120      H1125   1.087       .  S
C1120      C1121   1.362       .  D
C1121      C2186   1.486       .  S
O1126      C1142   1.275       .  A
O1126     Zn1132   2.024   1_455  S
C1127      O1143   1.276       .  A
C1127      O1140   1.276       .  A
C1127      C1626   1.490       .  S
O1128      C1141   1.279       .  A
O1128     Cd1135   2.095       .  S
O1129      C1147   1.276       .  A
O1129     Cd1138   2.068       .  S
O1130      C1144   1.274       .  A
O1130     Cd1134   2.067   1_556  S
O1131      C1142   1.274       .  A
O1131     Cd1134   2.064       .  S
Zn1132     O1143   2.032   1_554  S
Zn1132     O1145   2.015       .  S
Zn1132     O1137   1.949   1_554  S
O1133      C1144   1.277       .  A
O1133     Cd1138   2.085   1_455  S
Cd1134     O1136   2.056       .  S
Cd1134     O1137   1.995   1_454  S
Cd1135     O1139   2.101       .  S
Cd1135     O1148   2.090   1_554  S
Cd1135     O1137   2.018   1_554  S
O1136      C1146   1.273       .  A
O1137     Cd1138   2.001       .  S
Cd1138     O1140   2.078       .  S
O1139      C1146   1.279   1_655  A
C1141      O1145   1.274       .  A
C1141      C1577   1.491       .  S
C1142      C1557   1.487       .  S
C1144      C1646   1.491       .  S
C1146      C1597   1.492       .  S
C1147      O1148   1.278       .  A
C1147      C1666   1.491       .  S
O1149      C1165   1.275       .  A
O1149     Zn1155   2.019       .  S
C1150      O1166   1.274       .  A
C1150      O1163   1.277       .  A
C1150      C2377   1.471       .  S
O1151      C1164   1.280       .  A
O1151     Cd1158   2.104       .  S
O1152      C1170   1.280       .  A
O1152     Cd1161   2.100       .  S
O1153      C1167   1.277       .  A
O1153     Cd1157   2.069       .  S
O1154      C1165   1.277       .  A
O1154     Cd1157   2.082       .  S
Zn1155     O1166   2.001       .  S
Zn1155     O1168   1.967       .  S
Zn1155     O1160   1.902       .  S
O1156      C1167   1.275       .  A
O1156     Cd1161   2.063       .  S
Cd1157     O1159   2.041       .  S
Cd1157     O1160   1.968       .  S
Cd1158     O1162   2.098       .  S
Cd1158     O1171   2.060       .  S
Cd1158     O1160   1.989       .  S
O1159      C1169   1.272       .  A
O1160     Cd1161   1.986       .  S
Cd1161     O1163   2.076       .  S
O1162      C1169   1.281       .  A
C1164      O1168   1.269       .  A
C1164      C1537   1.471       .  S
C1165      C1517   1.490       .  S
C1167      C3326   1.469       .  S
C1169      C2946   1.486       .  S
C1170      O1171   1.274       .  A
C1170      C2797   1.490       .  S
O1172      C1188   1.276       .  A
O1172     Zn1178   2.008       .  S
C1173      O1189   1.274       .  A
C1173      O1186   1.277       .  A
C1173      C1477   1.491       .  S
O1174      C1187   1.280       .  A
O1174     Cd1181   2.098       .  S
O1175      C1193   1.274       .  A
O1175     Cd1184   2.044       .  S
O1176      C1190   1.277       .  A
O1176     Cd1180   2.073       .  S
O1177      C1188   1.278       .  A
O1177     Cd1180   2.080       .  S
Zn1178     O1189   2.019       .  S
Zn1178     O1191   1.981       .  S
Zn1178     O1183   1.904       .  S
O1179      C1190   1.279       .  A
O1179     Cd1184   2.077       .  S
Cd1180     O1182   2.100       .  S
Cd1180     O1183   1.990       .  S
Cd1181     O1185   2.060       .  S
Cd1181     O1194   2.096       .  S
Cd1181     O1183   1.989       .  S
O1182      C1192   1.280       .  A
O1183     Cd1184   1.971       .  S
Cd1184     O1186   2.086       .  S
O1185      C1192   1.274       .  A
C1187      O1191   1.272       .  A
C1187      C1506   1.480       .  S
C1188      C2297   1.484       .  S
C1190      C3286   1.484       .  S
C1192      C2886   1.491       .  S
C1193      O1194   1.280       .  A
C1193      C2746   1.483       .  S
O1195      C1211   1.274       .  A
O1195     Zn1201   2.007   1_565  S
C1196      O1212   1.274       .  A
C1196      O1209   1.277       .  A
C1196      C1837   1.481       .  S
O1197      C1210   1.277       .  A
O1197     Cd1204   2.077       .  S
O1198      C1216   1.280       .  A
O1198     Cd1207   2.102       .  S
O1199      C1213   1.278       .  A
O1199     Cd1203   2.079       .  S
O1200      C1211   1.277       .  A
O1200     Cd1203   2.088       .  S
Zn1201     O1212   2.007       .  S
Zn1201     O1214   1.995       .  S
Zn1201     O1206   1.920       .  S
O1202      C1213   1.276   1_545  A
O1202     Cd1207   2.067       .  S
Cd1203     O1205   2.056       .  S
Cd1203     O1206   1.986   1_565  S
Cd1204     O1208   2.086   1_545  S
Cd1204     O1217   2.050       .  S
Cd1204     O1206   1.992       .  S
O1205      C1215   1.275       .  A
O1206     Cd1207   1.998       .  S
Cd1207     O1209   2.081       .  S
O1208      C1215   1.278       .  A
C1210      O1214   1.272       .  A
C1210      C2237   1.475       .  S
C1211      C2406   1.489       .  S
C1213      C3986   1.478       .  S
C1215      C1457   1.485       .  S
C1216      O1217   1.273       .  A
C1216      C1446   1.489       .  S
C1218      C1219   1.548       .  S
C1218      C1224   1.533       .  S
C1218      C1222   1.538       .  S
C1218      C1997   1.535       .  S
C1219      H1226   1.081       .  S
C1219      C1220   1.368       .  D
C1220      C1221   1.539       .  S
C1220      C1426   1.487       .  S
C1221      C1225   1.538       .  S
C1221      C1223   1.544       .  S
C1221      H1227   1.110       .  S
C1222      H1228   1.085       .  S
C1222      C1223   1.370       .  D
C1223      C1486   1.492       .  S
C1224      H1229   1.086       .  S
C1224      C1225   1.363       .  D
C1225      C4646   1.483       .  S
C1230      C1231   1.543       .  S
C1230      C1236   1.536       .  S
C1230      C1234   1.536       .  S
C1230      C2686   1.533       .  S
C1231      H1238   1.078       .  S
C1231      C1232   1.368       .  D
C1232      C1233   1.540       .  S
C1232      C1397   1.484       .  S
C1233      C1237   1.538       .  S
C1233      C1235   1.545       .  S
C1233      H1239   1.110       .  S
C1234      H1240   1.086       .  S
C1234      C1235   1.367       .  D
C1235      C4126   1.491       .  S
C1236      H1241   1.087       .  S
C1236      C1237   1.361       .  D
C1237      C1466   1.480       .  S
C1242      C1243   1.537       .  S
C1242      C1248   1.532       .  S
C1242      C1246   1.549       .  S
C1242      C3677   1.528       .  S
C1243      H1250   1.086       .  S
C1243      C1244   1.367       .  D
C1244      C1245   1.542       .  S
C1244      C1437   1.486       .  S
C1245      C1249   1.533       .  S
C1245      C1247   1.539       .  S
C1245      H1251   1.110       .  S
C1246      H1252   1.081       .  S
C1246      C1247   1.370       .  D
C1247      C1377   1.485       .  S
C1248      H1253   1.087       .  S
C1248      C1249   1.357       .  D
C1249      C1497   1.472       .  S
C1254      C1255   1.547       .  S
C1254      C1260   1.528       .  S
C1254      C1258   1.534       .  S
C1254      C5046   1.532       .  S
C1255      H1262   1.082       .  S
C1255      C1256   1.369       .  D
C1256      C1257   1.542       .  S
C1256      C1357   1.488       .  S
C1257      C1261   1.543       .  S
C1257      C1259   1.551       .  S
C1257      H1263   1.110       .  S
C1258      H1264   1.086       .  S
C1258      C1259   1.369       .  D
C1259      C2626   1.491       .  S
C1260      H1265   1.086       .  S
C1260      C1261   1.360       .  D
C1261      C1546   1.489       .  S
C1266      C1267   1.534       .  S
C1266      C1272   1.535       .  S
C1266      C1270   1.545       .  S
C1266      C4197   1.529       .  S
C1267      H1274   1.085       .  S
C1267      C1268   1.368       .  D
C1268      C1269   1.547       .  S
C1268      C1526   1.494       .  S
C1269      C1273   1.537       .  S
C1269      C1271   1.543       .  S
C1269      H1275   1.110       .  S
C1270      H1276   1.082       .  S
C1270      C1271   1.368       .  D
C1271      C1337   1.482       .  S
C1272      H1277   1.087       .  S
C1272      C1273   1.360       .  D
C1273      C4186   1.481       .  S
C1278      C1279   1.539       .  S
C1278      C1284   1.529       .  S
C1278      C1282   1.543       .  S
C1278      C4686   1.533       .  S
C1279      H1286   1.086       .  S
C1279      C1280   1.368       .  D
C1280      C1281   1.545       .  S
C1280      C4606   1.488       .  S
C1281      C1285   1.541       .  S
C1281      C1283   1.547       .  S
C1281      H1287   1.110       .  S
C1282      H1288   1.081       .  S
C1282      C1283   1.371       .  D
C1283      C1326   1.493       .  S
C1284      H1289   1.087       .  S
C1284      C1285   1.360       .  D
C1285      C2657   1.484       .  S
O1290      C1306   1.275       .  A
O1290     Zn1296   2.027       .  S
C1291      O1307   1.275       .  A
C1291      O1304   1.276       .  A
C1291      C1366   1.489       .  S
O1292      C1305   1.278   1_545  A
O1292     Cd1299   2.099       .  S
O1293      C1311   1.276       .  A
O1293     Cd1302   2.070       .  S
O1294      C1308   1.276       .  A
O1294     Cd1298   2.078       .  S
O1295      C1306   1.274       .  A
O1295     Cd1298   2.063   1_565  S
Zn1296     O1307   2.027       .  S
Zn1296     O1309   2.002       .  S
Zn1296     O1301   1.944   1_565  S
O1297      C1308   1.276       .  A
O1297     Cd1302   2.078       .  S
Cd1298     O1300   2.061       .  S
Cd1298     O1301   1.997       .  S
Cd1299     O1303   2.095       .  S
Cd1299     O1312   2.090       .  S
Cd1299     O1301   2.023       .  S
O1300      C1310   1.274       .  A
O1301     Cd1302   1.998       .  S
Cd1302     O1304   2.080   1_545  S
O1303      C1310   1.279       .  A
C1305      O1309   1.274       .  A
C1305      C1346   1.489       .  S
C1306      C1406   1.485       .  S
C1308      C1417   1.491       .  S
C1310      C1386   1.490       .  S
C1311      O1312   1.278       .  A
C1311      C1317   1.489       .  S
C1313      C1314   1.401       .  A
C1313      C1318   1.396       .  A
C1313      H1323   1.084       .  S
C1314      C1319   1.483       .  S
C1314      C1315   1.406       .  A
C1315      C1316   1.404       .  A
C1315      F1320   1.357       .  S
C1316      C1317   1.409       .  A
C1316      H1321   1.083       .  S
C1317      C1318   1.411       .  A
C1318      F1322   1.357       .  S
C1319      C1324   1.405       .  A
C1319      C1328   1.403       .  A
C1324      C1325   1.397       .  A
C1324      F1329   1.358       .  S
C1325      C1326   1.403       .  A
C1325      H1330   1.078       .  S
C1326      C1327   1.412       .  A
C1327      C1328   1.403       .  A
C1327      F1331   1.357       .  S
C1328      H1332   1.083       .  S
C1333      C1334   1.406       .  A
C1333      C1338   1.397       .  A
C1333      H1343   1.083       .  S
C1334      C1339   1.487       .  S
C1334      C1335   1.408       .  A
C1335      C1336   1.403       .  A
C1335      F1340   1.357       .  S
C1336      C1337   1.405       .  A
C1336      H1341   1.083       .  S
C1337      C1338   1.403       .  A
C1338      F1342   1.357       .  S
C1339      C1344   1.404       .  A
C1339      C1348   1.407       .  A
C1344      C1345   1.394       .  A
C1344      F1349   1.358       .  S
C1345      C1346   1.407       .  A
C1345      H1350   1.083       .  S
C1346      C1347   1.411       .  A
C1347      C1348   1.406       .  A
C1347      F1351   1.357   1_565  S
C1348      H1352   1.083       .  S
C1353      C1354   1.404       .  A
C1353      C1358   1.402       .  A
C1353      H1363   1.083       .  S
C1354      C1359   1.482       .  S
C1354      C1355   1.405       .  A
C1355      C1356   1.401       .  A
C1355      F1360   1.358       .  S
C1356      C1357   1.407       .  A
C1356      H1361   1.083       .  S
C1357      C1358   1.406       .  A
C1358      F1362   1.357       .  S
C1359      C1364   1.404       .  A
C1359      C1368   1.403       .  A
C1364      C1365   1.401       .  A
C1364      F1369   1.357       .  S
C1365      C1366   1.409       .  A
C1365      H1370   1.083       .  S
C1366      C1367   1.411       .  A
C1367      C1368   1.401       .  A
C1367      F1371   1.357       .  S
C1368      H1372   1.083       .  S
C1373      C1374   1.405       .  A
C1373      C1378   1.401       .  A
C1373      H1383   1.083       .  S
C1374      C1379   1.486       .  S
C1374      C1375   1.407       .  A
C1375      C1376   1.397       .  A
C1375      F1380   1.358       .  S
C1376      C1377   1.403       .  A
C1376      H1381   1.083       .  S
C1377      C1378   1.408       .  A
C1378      F1382   1.357       .  S
C1379      C1384   1.407       .  A
C1379      C1388   1.402       .  A
C1384      C1385   1.402       .  A
C1384      F1389   1.357       .  S
C1385      C1386   1.408       .  A
C1385      H1390   1.083       .  S
C1386      C1387   1.413       .  A
C1387      C1388   1.397       .  A
C1387      F1391   1.358       .  S
C1388      H1392   1.083       .  S
C1393      C1394   1.401       .  A
C1393      C1398   1.396       .  A
C1393      H1403   1.083       .  S
C1394      C1399   1.476       .  S
C1394      C1395   1.405       .  A
C1395      C1396   1.401       .  A
C1395      F1400   1.357       .  S
C1396      C1397   1.403       .  A
C1396      H1401   1.081       .  S
C1397      C1398   1.410       .  A
C1398      F1402   1.358       .  S
C1399      C1404   1.403       .  A
C1399      C1408   1.401       .  A
C1404      C1405   1.400       .  A
C1404      F1409   1.357       .  S
C1405      C1406   1.408       .  A
C1405      H1410   1.083       .  S
C1406      C1407   1.411       .  A
C1407      C1408   1.397       .  A
C1407      F1411   1.358       .  S
C1408      H1412   1.084       .  S
C1413      C1414   1.403       .  A
C1413      C1418   1.399       .  A
C1413      H1423   1.083       .  S
C1414      C1419   1.485       .  S
C1414      C1415   1.406       .  A
C1415      C1416   1.400       .  A
C1415      F1420   1.357       .  S
C1416      C1417   1.409       .  A
C1416      H1421   1.083       .  S
C1417      C1418   1.412       .  A
C1418      F1422   1.357       .  S
C1419      C1424   1.406       .  A
C1419      C1428   1.405       .  A
C1424      C1425   1.401       .  A
C1424      F1429   1.357       .  S
C1425      C1426   1.407       .  A
C1425      H1430   1.083       .  S
C1426      C1427   1.406       .  A
C1427      C1428   1.399       .  A
C1427      F1431   1.357       .  S
C1428      H1432   1.083       .  S
C1433      C1434   1.406       .  A
C1433      C1438   1.400       .  A
C1433      H1443   1.083       .  S
C1434      C1439   1.487       .  S
C1434      C1435   1.406       .  A
C1435      C1436   1.398       .  A
C1435      F1440   1.357       .  S
C1436      C1437   1.406       .  A
C1436      H1441   1.083       .  S
C1437      C1438   1.407       .  A
C1438      F1442   1.357       .  S
C1439      C1444   1.404       .  A
C1439      C1448   1.407       .  A
C1444      C1445   1.396       .  A
C1444      F1449   1.358       .  S
C1445      C1446   1.410       .  A
C1445      H1450   1.083       .  S
C1446      C1447   1.409       .  A
C1447      C1448   1.403       .  A
C1447      F1451   1.357       .  S
C1448      H1452   1.083       .  S
C1453      C1454   1.406       .  A
C1453      C1458   1.403       .  A
C1453      H1463   1.083       .  S
C1454      C1459   1.483       .  S
C1454      C1455   1.404       .  A
C1455      C1456   1.392       .  A
C1455      F1460   1.358       .  S
C1456      C1457   1.406       .  A
C1456      H1461   1.083       .  S
C1457      C1458   1.411       .  A
C1458      F1462   1.357       .  S
C1459      C1464   1.405       .  A
C1459      C1468   1.407       .  A
C1464      C1465   1.397       .  A
C1464      F1469   1.358       .  S
C1465      C1466   1.406       .  A
C1465      H1470   1.083       .  S
C1466      C1467   1.402       .  A
C1467      C1468   1.398       .  A
C1467      F1471   1.357       .  S
C1468      H1472   1.083       .  S
C1473      C1474   1.406       .  A
C1473      C1478   1.401       .  A
C1473      H1483   1.083       .  S
C1474      C1479   1.493       .  S
C1474      C1475   1.409       .  A
C1475      C1476   1.402       .  A
C1475      F1480   1.357       .  S
C1476      C1477   1.407       .  A
C1476      H1481   1.083       .  S
C1477      C1478   1.411       .  A
C1478      F1482   1.357       .  S
C1479      C1484   1.410       .  A
C1479      C1488   1.405       .  A
C1484      C1485   1.403       .  A
C1484      F1489   1.357       .  S
C1485      C1486   1.405       .  A
C1485      H1490   1.083       .  S
C1486      C1487   1.409       .  A
C1487      C1488   1.399       .  A
C1487      F1491   1.357       .  S
C1488      H1492   1.083       .  S
C1493      C1494   1.403       .  A
C1493      C1498   1.396       .  A
C1493      H1503   1.083       .  S
C1494      C1499   1.482       .  S
C1494      C1495   1.411       .  A
C1495      C1496   1.399       .  A
C1495      F1500   1.358       .  S
C1496      C1497   1.399       .  A
C1496      H1501   1.083       .  S
C1497      C1498   1.404       .  A
C1498      F1502   1.358       .  S
C1499      C1504   1.410       .  A
C1499      C1508   1.400       .  A
C1504      C1505   1.402       .  A
C1504      F1509   1.358       .  S
C1505      C1506   1.404       .  A
C1505      H1510   1.083       .  S
C1506      C1507   1.410       .  A
C1507      C1508   1.394       .  A
C1507      F1511   1.358       .  S
C1508      H1512   1.083       .  S
C1513      C1514   1.405       .  A
C1513      C1518   1.400       .  A
C1513      H1523   1.083       .  S
C1514      C1519   1.489       .  S
C1514      C1515   1.407       .  A
C1515      C1516   1.400       .  A
C1515      F1520   1.357       .  S
C1516      C1517   1.409       .  A
C1516      H1521   1.083       .  S
C1517      C1518   1.411       .  A
C1518      F1522   1.357       .  S
C1519      C1524   1.409       .  A
C1519      C1528   1.403       .  A
C1524      C1525   1.404       .  A
C1524      F1529   1.357       .  S
C1525      C1526   1.406       .  A
C1525      H1530   1.083       .  S
C1526      C1527   1.411       .  A
C1527      C1528   1.397       .  A
C1527      F1531   1.357       .  S
C1528      H1532   1.083       .  S
C1533      C1534   1.402       .  A
C1533      C1538   1.395       .  A
C1533      H1543   1.083       .  S
C1534      C1539   1.485       .  S
C1534      C1535   1.412       .  A
C1535      C1536   1.400       .  A
C1535      F1540   1.357       .  S
C1536      C1537   1.399       .  A
C1536      H1541   1.083       .  S
C1537      C1538   1.409       .  A
C1538      F1542   1.359       .  S
C1539      C1544   1.412       .  A
C1539      C1548   1.399       .  A
C1544      C1545   1.404       .  A
C1544      F1549   1.358       .  S
C1545      C1546   1.404       .  A
C1545      H1550   1.082       .  S
C1546      C1547   1.412       .  A
C1547      C1548   1.390       .  A
C1547      F1551   1.357       .  S
C1548      H1552   1.083       .  S
C1553      C1554   1.404       .  A
C1553      C1558   1.399       .  A
C1553      H1563   1.083       .  S
C1554      C1559   1.483       .  S
C1554      C1555   1.405       .  A
C1555      C1556   1.398       .  A
C1555      F1560   1.357       .  S
C1556      C1557   1.408       .  A
C1556      H1561   1.083       .  S
C1557      C1558   1.411       .  A
C1558      F1562   1.357       .  S
C1559      C1564   1.405       .  A
C1559      C1568   1.405       .  A
C1564      C1565   1.398       .  A
C1564      F1569   1.358       .  S
C1565      C1566   1.406       .  A
C1565      H1570   1.083       .  S
C1566      C1567   1.406       .  A
C1567      C1568   1.400       .  A
C1567      F1571   1.357       .  S
C1568      H1572   1.083       .  S
C1573      C1574   1.403       .  A
C1573      C1578   1.399       .  A
C1573      H1583   1.083       .  S
C1574      C1579   1.488       .  S
C1574      C1575   1.408       .  A
C1575      C1576   1.401       .  A
C1575      F1580   1.357       .  S
C1576      C1577   1.407       .  A
C1576      H1581   1.083       .  S
C1577      C1578   1.413       .  A
C1578      F1582   1.358       .  S
C1579      C1584   1.410       .  A
C1579      C1588   1.406       .  A
C1584      C1585   1.401       .  A
C1584      F1589   1.357       .  S
C1585      C1586   1.400       .  A
C1585      H1590   1.083       .  S
C1586      C1587   1.403       .  A
C1587      C1588   1.399       .  A
C1587      F1591   1.358       .  S
C1588      H1592   1.083       .  S
C1593      C1594   1.403       .  A
C1593      C1598   1.397       .  A
C1593      H1603   1.083       .  S
C1594      C1599   1.489       .  S
C1594      C1595   1.409       .  A
C1595      C1596   1.403       .  A
C1595      F1600   1.357       .  S
C1596      C1597   1.407       .  A
C1596      H1601   1.083   1_455  S
C1597      C1598   1.413       .  A
C1598      F1602   1.358       .  S
C1599      C1604   1.410       .  A
C1599      C1608   1.406       .  A
C1604      C1605   1.400       .  A
C1604      F1609   1.357       .  S
C1605      C1606   1.401       .  A
C1605      H1610   1.080       .  S
C1606      C1607   1.405       .  A
C1607      C1608   1.400       .  A
C1607      F1611   1.357       .  S
C1608      H1612   1.083       .  S
C1613      C1614   1.405       .  A
C1613      C1618   1.399       .  A
C1613      H1623   1.083       .  S
C1614      C1619   1.487       .  S
C1614      C1615   1.407       .  A
C1615      C1616   1.402       .  A
C1615      F1620   1.357       .  S
C1616      C1617   1.407       .  A
C1616      H1621   1.083       .  S
C1617      C1618   1.407       .  A
C1618      F1622   1.357       .  S
C1619      C1624   1.406       .  A
C1619      C1628   1.404       .  A
C1624      C1625   1.401       .  A
C1624      F1629   1.357       .  S
C1625      C1626   1.408       .  A
C1625      H1630   1.083       .  S
C1626      C1627   1.411       .  A
C1627      C1628   1.400       .  A
C1627      F1631   1.357       .  S
C1628      H1632   1.083       .  S
C1633      C1634   1.407       .  A
C1633      C1638   1.401       .  A
C1633      H1643   1.083       .  S
C1634      C1639   1.489       .  S
C1634      C1635   1.408       .  A
C1635      C1636   1.400       .  A
C1635      F1640   1.357       .  S
C1636      C1637   1.405       .  A
C1636      H1641   1.083       .  S
C1637      C1638   1.405       .  A
C1638      F1642   1.357       .  S
C1639      C1644   1.407       .  A
C1639      C1648   1.404       .  A
C1644      C1645   1.400       .  A
C1644      F1649   1.357       .  S
C1645      C1646   1.407       .  A
C1645      H1650   1.083       .  S
C1646      C1647   1.413       .  A
C1647      C1648   1.400       .  A
C1647      F1651   1.358       .  S
C1648      H1652   1.083       .  S
C1653      C1654   1.406       .  A
C1653      C1658   1.399       .  A
C1653      H1663   1.083       .  S
C1654      C1659   1.488       .  S
C1654      C1655   1.409       .  A
C1655      C1656   1.400       .  A
C1655      F1660   1.357       .  S
C1656      C1657   1.403       .  A
C1656      H1661   1.083       .  S
C1657      C1658   1.404       .  A
C1658      F1662   1.357       .  S
C1659      C1664   1.406       .  A
C1659      C1668   1.406       .  A
C1664      C1665   1.397       .  A
C1664      F1669   1.358       .  S
C1665      C1666   1.408       .  A
C1665      H1670   1.083       .  S
C1666      C1667   1.411       .  A
C1667      C1668   1.402       .  A
C1667      F1671   1.357   1_556  S
C1668      H1672   1.083       .  S
C1673      C1674   1.408       .  A
C1673      C1678   1.404       .  A
C1673      H1683   1.083       .  S
C1674      C1679   1.491       .  S
C1674      C1675   1.405       .  A
C1675      C1676   1.398       .  A
C1675      F1680   1.358       .  S
C1676      C1677   1.411       .  A
C1676      H1681   1.083       .  S
C1677      C1678   1.409       .  A
C1678      F1682   1.357       .  S
C1679      C1684   1.410       .  A
C1679      C1688   1.405       .  A
C1684      C1685   1.402       .  A
C1684      F1689   1.357       .  S
C1685      C1686   1.403       .  A
C1685      H1690   1.083       .  S
C1686      C1687   1.407       .  A
C1687      C1688   1.400       .  A
C1687      F1691   1.357       .  S
C1688      H1692   1.083       .  S
C1693      C1694   1.406       .  A
C1693      C1698   1.406       .  A
C1693      H1703   1.083       .  S
C1694      C1699   1.487       .  S
C1694      C1695   1.405       .  A
C1695      C1696   1.395       .  A
C1695      F1700   1.358       .  S
C1696      C1697   1.407       .  A
C1696      H1701   1.083       .  S
C1697      C1698   1.411       .  A
C1698      F1702   1.357       .  S
C1699      C1704   1.407       .  A
C1699      C1708   1.408       .  A
C1704      C1705   1.393       .  A
C1704      F1709   1.358       .  S
C1705      C1706   1.402       .  A
C1705      H1710   1.084       .  S
C1706      C1707   1.405       .  A
C1707      C1708   1.406       .  A
C1707      F1711   1.357       .  S
C1708      H1712   1.083       .  S
C1713      C1714   1.405       .  A
C1713      C1718   1.400       .  A
C1713      H1723   1.083       .  S
C1714      C1719   1.489       .  S
C1714      C1715   1.409       .  A
C1715      C1716   1.399       .  A
C1715      F1720   1.357       .  S
C1716      C1717   1.403       .  A
C1716      H1721   1.083       .  S
C1717      C1718   1.409       .  A
C1718      F1722   1.357       .  S
C1719      C1724   1.409       .  A
C1719      C1728   1.402       .  A
C1724      C1725   1.403       .  A
C1724      F1729   1.357       .  S
C1725      C1726   1.407       .  A
C1725      H1730   1.083       .  S
C1726      C1727   1.414       .  A
C1727      C1728   1.396       .  A
C1727      F1731   1.358       .  S
C1728      H1732   1.083       .  S
C1733      C1734   1.401       .  A
C1733      C1738   1.397       .  A
C1733      H1743   1.084       .  S
C1734      C1739   1.483       .  S
C1734      C1735   1.406       .  A
C1735      C1736   1.401       .  A
C1735      F1740   1.357       .  S
C1736      C1737   1.408       .  A
C1736      H1741   1.083       .  S
C1737      C1738   1.413       .  A
C1738      F1742   1.358       .  S
C1739      C1744   1.402       .  A
C1739      C1748   1.404       .  A
C1744      C1745   1.396       .  A
C1744      F1749   1.358       .  S
C1745      C1746   1.412       .  A
C1745      H1750   1.082       .  S
C1746      C1747   1.411       .  A
C1747      C1748   1.402       .  A
C1747      F1751   1.352       .  S
C1748      H1752   1.083       .  S
C1753      C1754   1.405       .  A
C1753      C1758   1.402       .  A
C1753      H1763   1.083       .  S
C1754      C1759   1.492       .  S
C1754      C1755   1.407       .  A
C1755      C1756   1.403       .  A
C1755      F1760   1.358       .  S
C1756      C1757   1.410       .  A
C1756      H1761   1.083       .  S
C1757      C1758   1.411       .  A
C1758      F1762   1.357       .  S
C1759      C1764   1.404       .  A
C1759      C1768   1.406       .  A
C1764      C1765   1.399       .  A
C1764      F1769   1.358       .  S
C1765      C1766   1.411       .  A
C1765      H1770   1.082       .  S
C1766      C1767   1.411       .  A
C1767      C1768   1.405       .  A
C1767      F1771   1.353       .  S
C1768      H1772   1.083       .  S
C1773      C1774   1.399       .  A
C1773      C1778   1.394       .  A
C1773      H1783   1.084       .  S
C1774      C1779   1.478       .  S
C1774      C1775   1.407       .  A
C1775      C1776   1.402       .  A
C1775      F1780   1.358       .  S
C1776      C1777   1.407       .  A
C1776      H1781   1.083       .  S
C1777      C1778   1.412       .  A
C1778      F1782   1.358       .  S
C1779      C1784   1.403       .  A
C1779      C1788   1.403       .  A
C1784      C1785   1.397       .  A
C1784      F1789   1.358       .  S
C1785      C1786   1.408       .  A
C1785      H1790   1.083       .  S
C1786      C1787   1.409       .  A
C1787      C1788   1.400       .  A
C1787      F1791   1.356       .  S
C1788      H1792   1.083       .  S
C1793      C1794   1.404       .  A
C1793      C1798   1.396       .  A
C1793      H1803   1.083       .  S
C1794      C1799   1.486       .  S
C1794      C1795   1.409       .  A
C1795      C1796   1.403       .  A
C1795      F1800   1.357       .  S
C1796      C1797   1.404       .  A
C1796      H1801   1.083       .  S
C1797      C1798   1.406       .  A
C1798      F1802   1.357       .  S
C1799      C1804   1.405       .  A
C1799      C1808   1.406       .  A
C1804      C1805   1.396       .  A
C1804      F1809   1.358       .  S
C1805      C1806   1.408       .  A
C1805      H1810   1.083       .  S
C1806      C1807   1.411       .  A
C1807      C1808   1.403       .  A
C1807      F1811   1.357       .  S
C1808      H1812   1.083       .  S
C1813      C1814   1.406       .  A
C1813      C1818   1.402       .  A
C1813      H1823   1.083       .  S
C1814      C1819   1.485       .  S
C1814      C1815   1.404       .  A
C1815      C1816   1.396       .  A
C1815      F1820   1.358       .  S
C1816      C1817   1.408       .  A
C1816      H1821   1.083       .  S
C1817      C1818   1.409       .  A
C1818      F1822   1.357       .  S
C1819      C1824   1.409       .  A
C1819      C1828   1.403       .  A
C1824      C1825   1.400       .  A
C1824      F1829   1.358       .  S
C1825      C1826   1.403       .  A
C1825      H1830   1.083       .  S
C1826      C1827   1.408       .  A
C1827      C1828   1.399       .  A
C1827      F1831   1.357       .  S
C1828      H1832   1.083       .  S
C1833      C1834   1.405       .  A
C1833      C1838   1.397       .  A
C1833      H1843   1.083       .  S
C1834      C1839   1.488       .  S
C1834      C1835   1.409       .  A
C1835      C1836   1.400       .  A
C1835      F1840   1.357       .  S
C1836      C1837   1.405       .  A
C1836      H1841   1.083       .  S
C1837      C1838   1.408       .  A
C1838      F1842   1.358       .  S
C1839      C1844   1.405       .  A
C1839      C1848   1.404       .  A
C1844      C1845   1.397       .  A
C1844      F1849   1.357       .  S
C1845      C1846   1.412       .  A
C1845      H1850   1.078       .  S
C1846      C1847   1.413       .  A
C1847      C1848   1.398       .  A
C1847      F1851   1.357       .  S
C1848      H1852   1.083       .  S
C1853      C1854   1.406       .  A
C1853      C1858   1.405       .  A
C1853      H1863   1.083       .  S
C1854      C1859   1.490       .  S
C1854      C1855   1.407       .  A
C1855      C1856   1.395       .  A
C1855      F1860   1.358       .  S
C1856      C1857   1.401       .  A
C1856      H1861   1.077       .  S
C1857      C1858   1.411       .  A
C1858      F1862   1.357       .  S
C1859      C1864   1.409       .  A
C1859      C1868   1.402       .  A
C1864      C1865   1.406       .  A
C1864      F1869   1.357       .  S
C1865      C1866   1.409       .  A
C1865      H1870   1.083   1_455  S
C1866      C1867   1.413       .  A
C1867      C1868   1.395       .  A
C1867      F1871   1.357       .  S
C1868      H1872   1.083       .  S
C1873      C1874   1.405       .  A
C1873      C1878   1.404       .  A
C1873      H1883   1.083       .  S
C1874      C1879   1.486       .  S
C1874      C1875   1.404       .  A
C1875      C1876   1.397       .  A
C1875      F1880   1.358       .  S
C1876      C1877   1.410       .  A
C1876      H1881   1.083       .  S
C1877      C1878   1.411       .  A
C1878      F1882   1.357   1_554  S
C1879      C1884   1.407       .  A
C1879      C1888   1.403       .  A
C1884      C1885   1.403       .  A
C1884      F1889   1.357       .  S
C1885      C1886   1.407       .  A
C1885      H1890   1.083       .  S
C1886      C1887   1.408       .  A
C1887      C1888   1.398       .  A
C1887      F1891   1.356       .  S
C1888      H1892   1.083       .  S
C1893      C1894   1.407       .  A
C1893      C1898   1.400       .  A
C1893      H1903   1.083       .  S
C1894      C1899   1.488       .  S
C1894      C1895   1.410       .  A
C1895      C1896   1.399       .  A
C1895      F1900   1.357       .  S
C1896      C1897   1.401       .  A
C1896      H1901   1.084       .  S
C1897      C1898   1.402       .  A
C1898      F1902   1.356       .  S
C1899      C1904   1.407       .  A
C1899      C1908   1.406       .  A
C1904      C1905   1.398       .  A
C1904      F1909   1.358       .  S
C1905      C1906   1.406       .  A
C1905      H1910   1.083       .  S
C1906      C1907   1.409       .  A
C1907      C1908   1.402       .  A
C1907      F1911   1.357       .  S
C1908      H1912   1.083       .  S
C1913      C1914   1.406       .  A
C1913      C1918   1.398       .  A
C1913      H1923   1.083       .  S
C1914      C1919   1.491       .  S
C1914      C1915   1.411       .  A
C1915      C1916   1.399       .  A
C1915      F1920   1.357       .  S
C1916      C1917   1.404       .  A
C1916      H1921   1.083       .  S
C1917      C1918   1.408       .  A
C1918      F1922   1.358       .  S
C1919      C1924   1.412       .  A
C1919      C1928   1.406       .  A
C1924      C1925   1.401       .  A
C1924      F1929   1.357       .  S
C1925      C1926   1.401       .  A
C1925      H1930   1.083       .  S
C1926      C1927   1.401       .  A
C1927      C1928   1.396       .  A
C1927      F1931   1.355       .  S
C1928      H1932   1.083       .  S
C1933      C1934   1.401       .  A
C1933      C1938   1.398       .  A
C1933      H1943   1.083       .  S
C1934      C1939   1.480       .  S
C1934      C1935   1.407       .  A
C1935      C1936   1.401       .  A
C1935      F1940   1.357       .  S
C1936      C1937   1.405       .  A
C1936      H1941   1.083       .  S
C1937      C1938   1.412       .  A
C1938      F1942   1.358       .  S
C1939      C1944   1.404       .  A
C1939      C1948   1.402       .  A
C1944      C1945   1.400       .  A
C1944      F1949   1.358       .  S
C1945      C1946   1.404       .  A
C1945      H1950   1.071       .  S
C1946      C1947   1.409       .  A
C1947      C1948   1.398       .  A
C1947      F1951   1.358       .  S
C1948      H1952   1.083       .  S
C1953      C1954   1.404       .  A
C1953      C1958   1.401       .  A
C1953      H1963   1.083       .  S
C1954      C1959   1.485       .  S
C1954      C1955   1.404       .  A
C1955      C1956   1.401       .  A
C1955      F1960   1.357       .  S
C1956      C1957   1.410       .  A
C1956      H1961   1.083       .  S
C1957      C1958   1.412       .  A
C1958      F1962   1.357       .  S
C1959      C1964   1.402       .  A
C1959      C1968   1.404       .  A
C1964      C1965   1.398       .  A
C1964      F1969   1.358       .  S
C1965      C1966   1.407       .  A
C1965      H1970   1.072       .  S
C1966      C1967   1.413       .  A
C1967      C1968   1.404       .  A
C1967      F1971   1.357       .  S
C1968      H1972   1.083       .  S
C1973      C1974   1.404       .  A
C1973      C1978   1.399       .  A
C1973      H1983   1.083       .  S
C1974      C1979   1.486       .  S
C1974      C1975   1.409       .  A
C1975      C1976   1.399       .  A
C1975      F1980   1.358       .  S
C1976      C1977   1.403       .  A
C1976      H1981   1.083       .  S
C1977      C1978   1.407       .  A
C1978      F1982   1.358       .  S
C1979      C1984   1.405       .  A
C1979      C1988   1.402       .  A
C1984      C1985   1.399       .  A
C1984      F1989   1.358       .  S
C1985      C1986   1.413       .  A
C1985      H1990   1.076       .  S
C1986      C1987   1.413       .  A
C1987      C1988   1.398       .  A
C1987      F1991   1.358       .  S
C1988      H1992   1.083       .  S
C1993      C1994   1.402       .  A
C1993      C1998   1.401       .  A
C1993      H2003   1.083       .  S
C1994      C1999   1.486       .  S
C1994      C1995   1.405       .  A
C1995      C1996   1.398       .  A
C1995      F2000   1.358       .  S
C1996      C1997   1.411       .  A
C1996      H2001   1.076       .  S
C1997      C1998   1.416       .  A
C1998      F2002   1.358       .  S
C1999      C2004   1.407       .  A
C1999      C2008   1.402       .  A
C2004      C2005   1.404       .  A
C2004      F2009   1.357       .  S
C2005      C2006   1.410       .  A
C2005      H2010   1.083       .  S
C2006      C2007   1.412       .  A
C2007      C2008   1.396       .  A
C2007      F2011   1.357       .  S
C2008      H2012   1.083       .  S
C2013      C2014   1.408       .  A
C2013      C2018   1.401       .  A
C2013      H2023   1.083       .  S
C2014      C2019   1.490       .  S
C2014      C2015   1.407       .  A
C2015      C2016   1.399       .  A
C2015      F2020   1.357       .  S
C2016      C2017   1.405       .  A
C2016      H2021   1.083       .  S
C2017      C2018   1.404       .  A
C2018      F2022   1.357       .  S
C2019      C2024   1.410       .  A
C2019      C2028   1.401       .  A
C2024      C2025   1.404       .  A
C2024      F2029   1.357       .  S
C2025      C2026   1.408       .  A
C2025      H2030   1.083       .  S
C2026      C2027   1.413       .  A
C2027      C2028   1.396       .  A
C2027      F2031   1.357       .  S
C2028      H2032   1.083       .  S
C2033      C2034   1.406       .  A
C2033      C2038   1.395       .  A
C2033      H2043   1.083       .  S
C2034      C2039   1.485       .  S
C2034      C2035   1.407       .  A
C2035      C2036   1.399       .  A
C2035      F2040   1.357       .  S
C2036      C2037   1.401       .  A
C2036      H2041   1.078       .  S
C2037      C2038   1.405       .  A
C2038      F2042   1.358       .  S
C2039      C2044   1.404       .  A
C2039      C2048   1.407       .  A
C2044      C2045   1.394       .  A
C2044      F2049   1.358       .  S
C2045      C2046   1.408       .  A
C2045      H2050   1.083       .  S
C2046      C2047   1.408       .  A
C2047      C2048   1.402       .  A
C2047      F2051   1.357       .  S
C2048      H2052   1.083       .  S
C2053      C2054   1.403       .  A
C2053      C2058   1.400       .  A
C2053      H2063   1.083       .  S
C2054      C2059   1.482       .  S
C2054      C2055   1.406       .  A
C2055      C2056   1.396       .  A
C2055      F2060   1.358       .  S
C2056      C2057   1.405       .  A
C2056      H2061   1.083       .  S
C2057      C2058   1.410       .  A
C2058      F2062   1.357       .  S
C2059      C2064   1.403       .  A
C2059      C2068   1.401       .  A
C2064      C2065   1.399       .  A
C2064      F2069   1.358       .  S
C2065      C2066   1.414       .  A
C2065      H2070   1.080       .  S
C2066      C2067   1.414       .  A
C2067      C2068   1.396       .  A
C2067      F2071   1.356       .  S
C2068      H2072   1.083       .  S
C2073      C2074   1.404       .  A
C2073      C2078   1.402       .  A
C2073      H2083   1.083       .  S
C2074      C2079   1.488       .  S
C2074      C2075   1.406       .  A
C2075      C2076   1.401       .  A
C2075      F2080   1.358       .  S
C2076      C2077   1.408       .  A
C2076      H2081   1.083       .  S
C2077      C2078   1.413       .  A
C2078      F2082   1.357       .  S
C2079      C2084   1.405       .  A
C2079      C2088   1.404       .  A
C2084      C2085   1.401       .  A
C2084      F2089   1.357       .  S
C2085      C2086   1.410       .  A
C2085      H2090   1.082       .  S
C2086      C2087   1.410       .  A
C2087      C2088   1.400       .  A
C2087      F2091   1.354       .  S
C2088      H2092   1.083       .  S
C2093      C2094   1.401       .  A
C2093      C2098   1.394       .  A
C2093      H2103   1.084       .  S
C2094      C2099   1.475       .  S
C2094      C2095   1.406       .  A
C2095      C2096   1.402       .  A
C2095      F2100   1.357       .  S
C2096      C2097   1.405       .  A
C2096      H2101   1.083       .  S
C2097      C2098   1.406       .  A
C2098      F2102   1.357       .  S
C2099      C2104   1.401       .  A
C2099      C2108   1.404       .  A
C2104      C2105   1.397       .  A
C2104      F2109   1.358       .  S
C2105      C2106   1.409       .  A
C2105      H2110   1.083       .  S
C2106      C2107   1.408       .  A
C2107      C2108   1.399       .  A
C2107      F2111   1.357       .  S
C2108      H2112   1.083       .  S
C2113      C2114   1.402       .  A
C2113      C2118   1.396       .  A
C2113      H2123   1.083       .  S
C2114      C2119   1.482       .  S
C2114      C2115   1.407       .  A
C2115      C2116   1.403       .  A
C2115      F2120   1.357       .  S
C2116      C2117   1.405       .  A
C2116      H2121   1.083       .  S
C2117      C2118   1.409       .  A
C2118      F2122   1.357       .  S
C2119      C2124   1.405       .  A
C2119      C2128   1.402       .  A
C2124      C2125   1.402       .  A
C2124      F2129   1.357       .  S
C2125      C2126   1.410       .  A
C2125      H2130   1.083       .  S
C2126      C2127   1.411       .  A
C2127      C2128   1.396       .  A
C2127      F2131   1.357       .  S
C2128      H2132   1.084       .  S
C2133      C2134   1.405       .  A
C2133      C2138   1.401       .  A
C2133      H2143   1.083       .  S
C2134      C2139   1.485       .  S
C2134      C2135   1.405       .  A
C2135      C2136   1.400       .  A
C2135      F2140   1.358       .  S
C2136      C2137   1.410       .  A
C2136      H2141   1.083       .  S
C2137      C2138   1.408       .  A
C2138      F2142   1.357       .  S
C2139      C2144   1.406       .  A
C2139      C2148   1.403       .  A
C2144      C2145   1.401       .  A
C2144      F2149   1.357       .  S
C2145      C2146   1.407       .  A
C2145      H2150   1.082       .  S
C2146      C2147   1.411       .  A
C2147      C2148   1.399       .  A
C2147      F2151   1.357       .  S
C2148      H2152   1.083       .  S
C2153      C2154   1.403       .  A
C2153      C2158   1.397       .  A
C2153      H2163   1.083       .  S
C2154      C2159   1.492       .  S
C2154      C2155   1.412       .  A
C2155      C2156   1.403       .  A
C2155      F2160   1.357       .  S
C2156      C2157   1.405       .  A
C2156      H2161   1.083       .  S
C2157      C2158   1.412       .  A
C2158      F2162   1.358       .  S
C2159      C2164   1.414       .  A
C2159      C2168   1.405       .  A
C2164      C2165   1.402       .  A
C2164      F2169   1.357       .  S
C2165      C2166   1.399       .  A
C2165      H2170   1.083       .  S
C2166      C2167   1.404       .  A
C2167      C2168   1.397       .  A
C2167      F2171   1.358       .  S
C2168      H2172   1.083       .  S
C2173      C2174   1.407       .  A
C2173      C2178   1.406       .  A
C2173      H2183   1.083       .  S
C2174      C2179   1.486       .  S
C2174      C2175   1.403       .  A
C2175      C2176   1.394       .  A
C2175      F2180   1.358       .  S
C2176      C2177   1.410       .  A
C2176      H2181   1.083       .  S
C2177      C2178   1.410       .  A
C2178      F2182   1.357       .  S
C2179      C2184   1.408       .  A
C2179      C2188   1.403       .  A
C2184      C2185   1.405       .  A
C2184      F2189   1.357       .  S
C2185      C2186   1.405       .  A
C2185      H2190   1.083       .  S
C2186      C2187   1.407       .  A
C2187      C2188   1.394       .  A
C2187      F2191   1.358       .  S
C2188      H2192   1.083       .  S
C2193      C2194   1.407       .  A
C2193      C2198   1.404       .  A
C2193      H2203   1.083       .  S
C2194      C2199   1.487       .  S
C2194      C2195   1.406       .  A
C2195      C2196   1.390       .  A
C2195      F2200   1.358       .  S
C2196      C2197   1.406       .  A
C2196      H2201   1.083       .  S
C2197      C2198   1.410       .  A
C2198      F2202   1.357       .  S
C2199      C2204   1.410       .  A
C2199      C2208   1.404       .  A
C2204      C2205   1.404       .  A
C2204      F2209   1.357       .  S
C2205      C2206   1.404       .  A
C2205      H2210   1.083       .  S
C2206      C2207   1.406       .  A
C2207      C2208   1.391       .  A
C2207      F2211   1.358       .  S
C2208      H2212   1.083       .  S
C2213      C2214   1.409       .  A
C2213      C2218   1.402       .  A
C2213      H2223   1.083       .  S
C2214      C2219   1.489       .  S
C2214      C2215   1.408       .  A
C2215      C2216   1.395       .  A
C2215      F2220   1.357       .  S
C2216      C2217   1.400       .  A
C2216      H2221   1.084       .  S
C2217      C2218   1.404       .  A
C2218      F2222   1.358       .  S
C2219      C2224   1.404       .  A
C2219      C2228   1.406       .  A
C2224      C2225   1.399       .  A
C2224      F2229   1.358       .  S
C2225      C2226   1.413       .  A
C2225      H2230   1.082       .  S
C2226      C2227   1.408       .  A
C2227      C2228   1.399       .  A
C2227      F2231   1.353       .  S
C2228      H2232   1.083       .  S
C2233      C2234   1.407       .  A
C2233      C2238   1.397       .  A
C2233      H2243   1.083       .  S
C2234      C2239   1.484       .  S
C2234      C2235   1.407       .  A
C2235      C2236   1.397       .  A
C2235      F2240   1.357       .  S
C2236      C2237   1.405       .  A
C2236      H2241   1.083       .  S
C2237      C2238   1.405       .  A
C2238      F2242   1.358       .  S
C2239      C2244   1.410       .  A
C2239      C2248   1.404       .  A
C2244      C2245   1.399       .  A
C2244      F2249   1.357       .  S
C2245      C2246   1.401       .  A
C2245      H2250   1.083       .  S
C2246      C2247   1.407       .  A
C2247      C2248   1.395       .  A
C2247      F2251   1.358       .  S
C2248      H2252   1.083       .  S
C2253      C2254   1.406       .  A
C2253      C2258   1.404       .  A
C2253      H2263   1.083       .  S
C2254      C2259   1.485       .  S
C2254      C2255   1.403       .  A
C2255      C2256   1.397       .  A
C2255      F2260   1.358       .  S
C2256      C2257   1.409       .  A
C2256      H2261   1.083       .  S
C2257      C2258   1.411       .  A
C2258      F2262   1.357       .  S
C2259      C2264   1.408       .  A
C2259      C2268   1.403       .  A
C2264      C2265   1.400       .  A
C2264      F2269   1.357       .  S
C2265      C2266   1.404       .  A
C2265      H2270   1.083       .  S
C2266      C2267   1.409       .  A
C2267      C2268   1.399       .  A
C2267      F2271   1.357       .  S
C2268      H2272   1.083       .  S
C2273      C2274   1.406       .  A
C2273      C2278   1.402       .  A
C2273      H2283   1.083       .  S
C2274      C2279   1.494       .  S
C2274      C2275   1.409       .  A
C2275      C2276   1.399       .  A
C2275      F2280   1.357       .  S
C2276      C2277   1.407       .  A
C2276      H2281   1.083       .  S
C2277      C2278   1.412       .  A
C2278      F2282   1.357       .  S
C2279      C2284   1.410       .  A
C2279      C2288   1.405       .  A
C2284      C2285   1.403       .  A
C2284      F2289   1.357       .  S
C2285      C2286   1.407       .  A
C2285      H2290   1.083       .  S
C2286      C2287   1.409       .  A
C2287      C2288   1.398       .  A
C2287      F2291   1.356       .  S
C2288      H2292   1.083       .  S
C2293      C2294   1.405       .  A
C2293      C2298   1.400       .  A
C2293      H2303   1.083       .  S
C2294      C2299   1.487       .  S
C2294      C2295   1.408       .  A
C2295      C2296   1.396       .  A
C2295      F2300   1.358       .  S
C2296      C2297   1.406       .  A
C2296      H2301   1.083       .  S
C2297      C2298   1.410       .  A
C2298      F2302   1.357       .  S
C2299      C2304   1.404       .  A
C2299      C2308   1.403       .  A
C2304      C2305   1.398       .  A
C2304      F2309   1.358       .  S
C2305      C2306   1.413       .  A
C2305      H2310   1.079       .  S
C2306      C2307   1.413       .  A
C2307      C2308   1.397       .  A
C2307      F2311   1.357       .  S
C2308      H2312   1.083       .  S
C2313      C2314   1.406       .  A
C2313      C2318   1.402       .  A
C2313      H2323   1.083       .  S
C2314      C2319   1.491       .  S
C2314      C2315   1.407       .  A
C2315      C2316   1.401       .  A
C2315      F2320   1.358       .  S
C2316      C2317   1.407       .  A
C2316      H2321   1.082       .  S
C2317      C2318   1.408       .  A
C2318      F2322   1.357       .  S
C2319      C2324   1.407       .  A
C2319      C2328   1.405       .  A
C2324      C2325   1.401       .  A
C2324      F2329   1.357       .  S
C2325      C2326   1.408       .  A
C2325      H2330   1.083       .  S
C2326      C2327   1.413       .  A
C2327      C2328   1.402       .  A
C2327      F2331   1.357       .  S
C2328      H2332   1.083       .  S
C2333      C2334   1.406       .  A
C2333      C2338   1.401       .  A
C2333      H2343   1.083       .  S
C2334      C2339   1.496       .  S
C2334      C2335   1.411       .  A
C2335      C2336   1.401       .  A
C2335      F2340   1.357       .  S
C2336      C2337   1.405       .  A
C2336      H2341   1.083       .  S
C2337      C2338   1.411       .  A
C2338      F2342   1.358       .  S
C2339      C2344   1.410       .  A
C2339      C2348   1.403       .  A
C2344      C2345   1.404       .  A
C2344      F2349   1.357       .  S
C2345      C2346   1.410       .  A
C2345      H2350   1.078       .  S
C2346      C2347   1.414       .  A
C2347      C2348   1.397       .  A
C2347      F2351   1.358       .  S
C2348      H2352   1.083       .  S
C2353      C2354   1.403       .  A
C2353      C2358   1.398       .  A
C2353      H2363   1.083       .  S
C2354      C2359   1.484       .  S
C2354      C2355   1.405       .  A
C2355      C2356   1.400       .  A
C2355      F2360   1.357       .  S
C2356      C2357   1.408       .  A
C2356      H2361   1.083       .  S
C2357      C2358   1.411       .  A
C2358      F2362   1.358       .  S
C2359      C2364   1.405       .  A
C2359      C2368   1.405       .  A
C2364      C2365   1.396       .  A
C2364      F2369   1.358       .  S
C2365      C2366   1.405       .  A
C2365      H2370   1.083       .  S
C2366      C2367   1.410       .  A
C2367      C2368   1.402       .  A
C2367      F2371   1.357       .  S
C2368      H2372   1.083       .  S
C2373      C2374   1.405       .  A
C2373      C2378   1.398       .  A
C2373      H2383   1.083       .  S
C2374      C2379   1.481       .  S
C2374      C2375   1.407       .  A
C2375      C2376   1.397       .  A
C2375      F2380   1.357       .  S
C2376      C2377   1.402       .  A
C2376      H2381   1.084       .  S
C2377      C2378   1.406       .  A
C2378      F2382   1.358       .  S
C2379      C2384   1.402       .  A
C2379      C2388   1.402       .  A
C2384      C2385   1.395       .  A
C2384      F2389   1.358       .  S
C2385      C2386   1.413       .  A
C2385      H2390   1.076       .  S
C2386      C2387   1.414       .  A
C2387      C2388   1.399       .  A
C2387      F2391   1.358       .  S
C2388      H2392   1.083       .  S
C2393      C2394   1.403       .  A
C2393      C2398   1.399       .  A
C2393      H2403   1.083       .  S
C2394      C2399   1.487       .  S
C2394      C2395   1.407       .  A
C2395      C2396   1.400       .  A
C2395      F2400   1.357       .  S
C2396      C2397   1.405       .  A
C2396      H2401   1.082       .  S
C2397      C2398   1.412       .  A
C2398      F2402   1.357       .  S
C2399      C2404   1.405       .  A
C2399      C2408   1.406       .  A
C2404      C2405   1.398       .  A
C2404      F2409   1.357       .  S
C2405      C2406   1.409       .  A
C2405      H2410   1.083       .  S
C2406      C2407   1.410       .  A
C2407      C2408   1.402       .  A
C2407      F2411   1.357       .  S
C2408      H2412   1.083       .  S
C2413      C2414   1.408       .  A
C2413      C2418   1.399       .  A
C2413      H2423   1.082       .  S
C2414      C2419   1.496       .  S
C2414      C2415   1.409       .  A
C2415      C2416   1.400       .  A
C2415      F2420   1.357       .  S
C2416      C2417   1.409       .  A
C2416      H2421   1.082       .  S
C2417      C2418   1.408       .  A
C2418      F2422   1.356       .  S
C2419      C2424   1.412       .  A
C2419      C2428   1.410       .  A
C2424      C2425   1.398       .  A
C2424      F2429   1.357       .  S
C2425      C2426   1.400       .  A
C2425      H2430   1.084       .  S
C2426      C2427   1.405       .  A
C2427      C2428   1.402       .  A
C2427      F2431   1.358       .  S
C2428      H2432   1.082       .  S
C2433      C2434   1.404       .  A
C2433      C2438   1.401       .  A
C2433      H2443   1.083       .  S
C2434      C2439   1.486       .  S
C2434      C2435   1.406       .  A
C2435      C2436   1.398       .  A
C2435      F2440   1.358       .  S
C2436      C2437   1.407       .  A
C2436      H2441   1.083       .  S
C2437      C2438   1.412       .  A
C2438      F2442   1.357       .  S
C2439      C2444   1.407       .  A
C2439      C2448   1.404       .  A
C2444      C2445   1.401       .  A
C2444      F2449   1.357       .  S
C2445      C2446   1.406       .  A
C2445      H2450   1.083       .  S
C2446      C2447   1.408       .  A
C2447      C2448   1.397       .  A
C2447      F2451   1.357       .  S
C2448      H2452   1.083       .  S
C2453      C2454   1.406       .  A
C2453      C2458   1.398       .  A
C2453      H2463   1.083       .  S
C2454      C2459   1.489       .  S
C2454      C2455   1.408       .  A
C2455      C2456   1.399       .  A
C2455      F2460   1.357       .  S
C2456      C2457   1.406       .  A
C2456      H2461   1.083       .  S
C2457      C2458   1.408       .  A
C2458      F2462   1.357       .  S
C2459      C2464   1.408       .  A
C2459      C2468   1.403       .  A
C2464      C2465   1.399       .  A
C2464      F2469   1.357       .  S
C2465      C2466   1.409       .  A
C2465      H2470   1.077       .  S
C2466      C2467   1.414       .  A
C2467      C2468   1.396       .  A
C2467      F2471   1.358       .  S
C2468      H2472   1.083       .  S
C2473      C2474   1.404       .  A
C2473      C2478   1.401       .  A
C2473      H2483   1.083       .  S
C2474      C2479   1.488       .  S
C2474      C2475   1.407       .  A
C2475      C2476   1.400       .  A
C2475      F2480   1.358       .  S
C2476      C2477   1.408       .  A
C2476      H2481   1.083       .  S
C2477      C2478   1.412       .  A
C2478      F2482   1.357       .  S
C2479      C2484   1.407       .  A
C2479      C2488   1.401       .  A
C2484      C2485   1.402       .  A
C2484      F2489   1.358       .  S
C2485      C2486   1.411       .  A
C2485      H2490   1.077       .  S
C2486      C2487   1.414       .  A
C2487      C2488   1.397       .  A
C2487      F2491   1.358       .  S
C2488      H2492   1.083       .  S
C2493      C2494   1.401       .  A
C2493      C2498   1.398       .  A
C2493      H2503   1.083       .  S
C2494      C2499   1.483       .  S
C2494      C2495   1.407       .  A
C2495      C2496   1.400       .  A
C2495      F2500   1.357       .  S
C2496      C2497   1.405       .  A
C2496      H2501   1.083       .  S
C2497      C2498   1.412       .  A
C2498      F2502   1.357       .  S
C2499      C2504   1.407       .  A
C2499      C2508   1.400       .  A
C2504      C2505   1.404       .  A
C2504      F2509   1.357       .  S
C2505      C2506   1.408       .  A
C2505      H2510   1.083       .  S
C2506      C2507   1.413       .  A
C2507      C2508   1.396       .  A
C2507      F2511   1.358       .  S
C2508      H2512   1.084       .  S
C2513      C2514   1.404       .  A
C2513      C2518   1.397       .  A
C2513      H2523   1.083       .  S
C2514      C2519   1.491       .  S
C2514      C2515   1.408       .  A
C2515      C2516   1.404       .  A
C2515      F2520   1.357       .  S
C2516      C2517   1.409       .  A
C2516      H2521   1.083       .  S
C2517      C2518   1.411       .  A
C2518      F2522   1.357       .  S
C2519      C2524   1.407       .  A
C2519      C2528   1.407       .  A
C2524      C2525   1.397       .  A
C2524      F2529   1.358       .  S
C2525      C2526   1.406       .  A
C2525      H2530   1.083       .  S
C2526      C2527   1.410       .  A
C2527      C2528   1.404       .  A
C2527      F2531   1.357       .  S
C2528      H2532   1.083       .  S
C2533      C2534   1.400       .  A
C2533      C2538   1.396       .  A
C2533      H2543   1.083       .  S
C2534      C2539   1.480       .  S
C2534      C2535   1.409       .  A
C2535      C2536   1.400       .  A
C2535      F2540   1.357       .  S
C2536      C2537   1.400       .  A
C2536      H2541   1.081       .  S
C2537      C2538   1.410       .  A
C2538      F2542   1.358       .  S
C2539      C2544   1.407       .  A
C2539      C2548   1.399       .  A
C2544      C2545   1.405       .  A
C2544      F2549   1.357       .  S
C2545      C2546   1.408       .  A
C2545      H2550   1.083       .  S
C2546      C2547   1.411       .  A
C2547      C2548   1.391       .  A
C2547      F2551   1.358       .  S
C2548      H2552   1.084       .  S
C2553      C2554   1.406       .  A
C2553      C2558   1.400       .  A
C2553      H2563   1.083       .  S
C2554      C2559   1.483       .  S
C2554      C2555   1.403       .  A
C2555      C2556   1.397       .  A
C2555      F2560   1.357       .  S
C2556      C2557   1.409       .  A
C2556      H2561   1.083       .  S
C2557      C2558   1.408       .  A
C2558      F2562   1.357       .  S
C2559      C2564   1.402       .  A
C2559      C2568   1.405       .  A
C2564      C2565   1.393       .  A
C2564      F2569   1.358       .  S
C2565      C2566   1.409       .  A
C2565      H2570   1.082       .  S
C2566      C2567   1.412       .  A
C2567      C2568   1.403       .  A
C2567      F2571   1.354       .  S
C2568      H2572   1.083       .  S
C2573      C2574   1.399       .  A
C2573      C2578   1.394       .  A
C2573      H2583   1.083       .  S
C2574      C2579   1.479       .  S
C2574      C2575   1.404       .  A
C2575      C2576   1.400       .  A
C2575      F2580   1.358       .  S
C2576      C2577   1.411       .  A
C2576      H2581   1.077       .  S
C2577      C2578   1.414       .  A
C2578      F2582   1.358       .  S
C2579      C2584   1.405       .  A
C2579      C2588   1.401       .  A
C2584      C2585   1.399       .  A
C2584      F2589   1.357       .  S
C2585      C2586   1.407       .  A
C2585      H2590   1.083       .  S
C2586      C2587   1.413       .  A
C2587      C2588   1.397       .  A
C2587      F2591   1.358       .  S
C2588      H2592   1.083       .  S
C2593      C2594   1.405       .  A
C2593      C2598   1.401       .  A
C2593      H2603   1.083       .  S
C2594      C2599   1.485       .  S
C2594      C2595   1.405       .  A
C2595      C2596   1.397       .  A
C2595      F2600   1.357       .  S
C2596      C2597   1.407       .  A
C2596      H2601   1.083       .  S
C2597      C2598   1.411       .  A
C2598      F2602   1.357       .  S
C2599      C2604   1.406       .  A
C2599      C2608   1.406       .  A
C2604      C2605   1.400       .  A
C2604      F2609   1.357       .  S
C2605      C2606   1.406       .  A
C2605      H2610   1.083       .  S
C2606      C2607   1.407       .  A
C2607      C2608   1.400       .  A
C2607      F2611   1.357       .  S
C2608      H2612   1.083       .  S
C2613      C2614   1.402       .  A
C2613      C2618   1.397       .  A
C2613      H2623   1.083       .  S
C2614      C2619   1.495       .  S
C2614      C2615   1.411       .  A
C2615      C2616   1.407       .  A
C2615      F2620   1.357       .  S
C2616      C2617   1.409       .  A
C2616      H2621   1.083       .  S
C2617      C2618   1.414       .  A
C2618      F2622   1.357       .  S
C2619      C2624   1.411       .  A
C2619      C2628   1.406       .  A
C2624      C2625   1.401       .  A
C2624      F2629   1.357       .  S
C2625      C2626   1.402       .  A
C2625      H2630   1.082       .  S
C2626      C2627   1.410       .  A
C2627      C2628   1.403       .  A
C2627      F2631   1.357       .  S
C2628      H2632   1.083       .  S
C2633      C2634   1.409       .  A
C2633      C2638   1.401       .  A
C2633      H2643   1.083       .  S
C2634      C2639   1.488       .  S
C2634      C2635   1.408       .  A
C2635      C2636   1.398       .  A
C2635      F2640   1.357       .  S
C2636      C2637   1.402       .  A
C2636      H2641   1.084       .  S
C2637      C2638   1.401       .  A
C2638      F2642   1.357       .  S
C2639      C2644   1.406       .  A
C2639      C2648   1.407       .  A
C2644      C2645   1.399       .  A
C2644      F2649   1.358       .  S
C2645      C2646   1.409       .  A
C2645      H2650   1.083       .  S
C2646      C2647   1.407       .  A
C2647      C2648   1.400       .  A
C2647      F2651   1.357       .  S
C2648      H2652   1.083       .  S
C2653      C2654   1.404       .  A
C2653      C2658   1.396       .  A
C2653      H2663   1.083       .  S
C2654      C2659   1.485       .  S
C2654      C2655   1.407       .  A
C2655      C2656   1.403       .  A
C2655      F2660   1.357       .  S
C2656      C2657   1.403       .  A
C2656      H2661   1.079       .  S
C2657      C2658   1.407       .  A
C2658      F2662   1.358       .  S
C2659      C2664   1.403       .  A
C2659      C2668   1.407       .  A
C2664      C2665   1.394       .  A
C2664      F2669   1.358       .  S
C2665      C2666   1.409       .  A
C2665      H2670   1.083       .  S
C2666      C2667   1.409       .  A
C2667      C2668   1.404       .  A
C2667      F2671   1.357       .  S
C2668      H2672   1.083       .  S
C2673      C2674   1.404       .  A
C2673      C2678   1.397       .  A
C2673      H2683   1.083       .  S
C2674      C2679   1.482       .  S
C2674      C2675   1.406       .  A
C2675      C2676   1.398       .  A
C2675      F2680   1.358       .  S
C2676      C2677   1.406       .  A
C2676      H2681   1.083       .  S
C2677      C2678   1.408       .  A
C2678      F2682   1.357       .  S
C2679      C2684   1.402       .  A
C2679      C2688   1.403       .  A
C2684      C2685   1.392       .  A
C2684      F2689   1.358       .  S
C2685      C2686   1.411       .  A
C2685      H2690   1.084       .  S
C2686      C2687   1.417       .  A
C2687      C2688   1.401       .  A
C2687      F2691   1.352       .  S
C2688      H2692   1.083       .  S
C2693      C2694   1.402       .  A
C2693      C2698   1.394       .  A
C2693      H2703   1.083       .  S
C2694      C2699   1.489       .  S
C2694      C2695   1.410       .  A
C2695      C2696   1.404       .  A
C2695      F2700   1.357       .  S
C2696      C2697   1.408       .  A
C2696      H2701   1.083       .  S
C2697      C2698   1.412       .  A
C2698      F2702   1.358       .  S
C2699      C2704   1.410       .  A
C2699      C2708   1.405       .  A
C2704      C2705   1.399       .  A
C2704      F2709   1.358       .  S
C2705      C2706   1.401       .  A
C2705      H2710   1.082       .  S
C2706      C2707   1.409       .  A
C2707      C2708   1.400       .  A
C2707      F2711   1.357       .  S
C2708      H2712   1.083       .  S
C2713      C2714   1.400       .  A
C2713      C2718   1.394       .  A
C2713      H2723   1.084       .  S
C2714      C2719   1.480       .  S
C2714      C2715   1.407       .  A
C2715      C2716   1.403       .  A
C2715      F2720   1.357       .  S
C2716      C2717   1.406       .  A
C2716      H2721   1.083       .  S
C2717      C2718   1.413       .  A
C2718      F2722   1.358       .  S
C2719      C2724   1.406       .  A
C2719      C2728   1.405       .  A
C2724      C2725   1.394       .  A
C2724      F2729   1.358       .  S
C2725      C2726   1.403       .  A
C2725      H2730   1.084       .  S
C2726      C2727   1.405       .  A
C2727      C2728   1.402       .  A
C2727      F2731   1.357       .  S
C2728      H2732   1.083       .  S
C2733      C2734   1.405       .  A
C2733      C2738   1.394       .  A
C2733      H2743   1.083       .  S
C2734      C2739   1.483       .  S
C2734      C2735   1.409       .  A
C2735      C2736   1.400       .  A
C2735      F2740   1.357       .  S
C2736      C2737   1.401       .  A
C2736      H2741   1.084       .  S
C2737      C2738   1.404       .  A
C2738      F2742   1.358       .  S
C2739      C2744   1.404       .  A
C2739      C2748   1.407       .  A
C2744      C2745   1.393       .  A
C2744      F2749   1.358       .  S
C2745      C2746   1.407       .  A
C2745      H2750   1.083       .  S
C2746      C2747   1.408       .  A
C2747      C2748   1.402       .  A
C2747      F2751   1.357       .  S
C2748      H2752   1.083       .  S
C2753      C2754   1.406       .  A
C2753      C2758   1.402       .  A
C2753      H2763   1.083       .  S
C2754      C2759   1.496       .  S
C2754      C2755   1.410       .  A
C2755      C2756   1.401       .  A
C2755      F2760   1.357       .  S
C2756      C2757   1.404       .  A
C2756      H2761   1.083       .  S
C2757      C2758   1.411       .  A
C2758      F2762   1.357       .  S
C2759      C2764   1.410       .  A
C2759      C2768   1.406       .  A
C2764      C2765   1.404       .  A
C2764      F2769   1.357       .  S
C2765      C2766   1.409       .  A
C2765      H2770   1.083       .  S
C2766      C2767   1.411       .  A
C2767      C2768   1.400       .  A
C2767      F2771   1.357       .  S
C2768      H2772   1.083       .  S
C2773      C2774   1.404       .  A
C2773      C2778   1.397       .  A
C2773      H2783   1.083       .  S
C2774      C2779   1.484       .  S
C2774      C2775   1.408       .  A
C2775      C2776   1.401       .  A
C2775      F2780   1.357       .  S
C2776      C2777   1.404       .  A
C2776      H2781   1.083       .  S
C2777      C2778   1.408       .  A
C2778      F2782   1.358       .  S
C2779      C2784   1.405       .  A
C2779      C2788   1.405       .  A
C2784      C2785   1.397       .  A
C2784      F2789   1.358       .  S
C2785      C2786   1.408       .  A
C2785      H2790   1.083       .  S
C2786      C2787   1.411       .  A
C2787      C2788   1.402       .  A
C2787      F2791   1.357       .  S
C2788      H2792   1.083       .  S
C2793      C2794   1.400       .  A
C2793      C2798   1.398       .  A
C2793      H2803   1.084       .  S
C2794      C2799   1.483       .  S
C2794      C2795   1.407       .  A
C2795      C2796   1.404       .  A
C2795      F2800   1.357       .  S
C2796      C2797   1.407       .  A
C2796      H2801   1.083       .  S
C2797      C2798   1.414       .  A
C2798      F2802   1.358       .  S
C2799      C2804   1.405       .  A
C2799      C2808   1.404       .  A
C2804      C2805   1.402       .  A
C2804      F2809   1.357       .  S
C2805      C2806   1.407       .  A
C2805      H2810   1.083       .  S
C2806      C2807   1.407       .  A
C2807      C2808   1.401       .  A
C2807      F2811   1.357       .  S
C2808      H2812   1.083       .  S
C2813      C2814   1.406       .  A
C2813      C2818   1.402       .  A
C2813      H2823   1.083       .  S
C2814      C2819   1.494       .  S
C2814      C2815   1.409       .  A
C2815      C2816   1.401       .  A
C2815      F2820   1.357       .  S
C2816      C2817   1.408       .  A
C2816      H2821   1.083       .  S
C2817      C2818   1.412       .  A
C2818      F2822   1.357       .  S
C2819      C2824   1.409       .  A
C2819      C2828   1.405       .  A
C2824      C2825   1.401       .  A
C2824      F2829   1.357       .  S
C2825      C2826   1.406       .  A
C2825      H2830   1.079       .  S
C2826      C2827   1.412       .  A
C2827      C2828   1.401       .  A
C2827      F2831   1.357       .  S
C2828      H2832   1.083       .  S
C2833      C2834   1.402       .  A
C2833      C2838   1.398       .  A
C2833      H2843   1.083       .  S
C2834      C2839   1.486       .  S
C2834      C2835   1.407       .  A
C2835      C2836   1.403       .  A
C2835      F2840   1.357       .  S
C2836      C2837   1.408       .  A
C2836      H2841   1.083       .  S
C2837      C2838   1.413       .  A
C2838      F2842   1.358       .  S
C2839      C2844   1.407       .  A
C2839      C2848   1.403       .  A
C2844      C2845   1.402       .  A
C2844      F2849   1.357       .  S
C2845      C2846   1.407       .  A
C2845      H2850   1.083       .  S
C2846      C2847   1.409       .  A
C2847      C2848   1.398       .  A
C2847      F2851   1.356       .  S
C2848      H2852   1.083       .  S
C2853      C2854   1.399       .  A
C2853      C2858   1.395       .  A
C2853      H2863   1.083       .  S
C2854      C2859   1.481       .  S
C2854      C2855   1.405       .  A
C2855      C2856   1.401       .  A
C2855      F2860   1.358       .  S
C2856      C2857   1.410       .  A
C2856      H2861   1.077       .  S
C2857      C2858   1.415       .  A
C2858      F2862   1.358       .  S
C2859      C2864   1.405       .  A
C2859      C2868   1.402       .  A
C2864      C2865   1.399       .  A
C2864      F2869   1.357       .  S
C2865      C2866   1.408       .  A
C2865      H2870   1.083       .  S
C2866      C2867   1.412       .  A
C2867      C2868   1.397       .  A
C2867      F2871   1.357       .  S
C2868      H2872   1.083       .  S
C2873      C2874   1.403       .  A
C2873      C2878   1.400       .  A
C2873      H2883   1.083       .  S
C2874      C2879   1.484       .  S
C2874      C2875   1.408       .  A
C2875      C2876   1.401       .  A
C2875      F2880   1.357       .  S
C2876      C2877   1.402       .  A
C2876      H2881   1.082       .  S
C2877      C2878   1.408       .  A
C2878      F2882   1.357       .  S
C2879      C2884   1.407       .  A
C2879      C2888   1.400       .  A
C2884      C2885   1.404       .  A
C2884      F2889   1.357       .  S
C2885      C2886   1.408       .  A
C2885      H2890   1.083       .  S
C2886      C2887   1.414       .  A
C2887      C2888   1.396       .  A
C2887      F2891   1.358       .  S
C2888      H2892   1.084       .  S
C2893      C2894   1.409       .  A
C2893      C2898   1.405       .  A
C2893      H2903   1.083       .  S
C2894      C2899   1.495       .  S
C2894      C2895   1.410       .  A
C2895      C2896   1.399       .  A
C2895      F2900   1.357       .  S
C2896      C2897   1.402       .  A
C2896      H2901   1.084       .  S
C2897      C2898   1.406       .  A
C2898      F2902   1.357       .  S
C2899      C2904   1.408       .  A
C2899      C2908   1.408       .  A
C2904      C2905   1.398       .  A
C2904      F2909   1.357       .  S
C2905      C2906   1.408       .  A
C2905      H2910   1.083       .  S
C2906      C2907   1.411       .  A
C2907      C2908   1.406       .  A
C2907      F2911   1.357       .  S
C2908      H2912   1.083       .  S
C2913      C2914   1.403       .  A
C2913      C2918   1.398       .  A
C2913      H2923   1.083       .  S
C2914      C2919   1.484       .  S
C2914      C2915   1.405       .  A
C2915      C2916   1.400       .  A
C2915      F2920   1.357       .  S
C2916      C2917   1.409       .  A
C2916      H2921   1.083       .  S
C2917      C2918   1.412       .  A
C2918      F2922   1.357       .  S
C2919      C2924   1.405       .  A
C2919      C2928   1.400       .  A
C2924      C2925   1.400       .  A
C2924      F2929   1.358       .  S
C2925      C2926   1.410       .  A
C2925      H2930   1.077       .  S
C2926      C2927   1.416       .  A
C2927      C2928   1.397       .  A
C2927      F2931   1.358       .  S
C2928      H2932   1.083       .  S
C2933      C2934   1.402       .  A
C2933      C2938   1.394       .  A
C2933      H2943   1.083       .  S
C2934      C2939   1.484       .  S
C2934      C2935   1.409       .  A
C2935      C2936   1.400       .  A
C2935      F2940   1.357       .  S
C2936      C2937   1.402       .  A
C2936      H2941   1.080       .  S
C2937      C2938   1.410       .  A
C2938      F2942   1.358       .  S
C2939      C2944   1.408       .  A
C2939      C2948   1.401       .  A
C2944      C2945   1.401       .  A
C2944      F2949   1.357       .  S
C2945      C2946   1.406       .  A
C2945      H2950   1.083       .  S
C2946      C2947   1.414       .  A
C2947      C2948   1.394       .  A
C2947      F2951   1.358       .  S
C2948      H2952   1.083       .  S
C2953      C2954   1.404       .  A
C2953      C2958   1.398       .  A
C2953      H2963   1.083       .  S
C2954      C2959   1.495       .  S
C2954      C2955   1.410       .  A
C2955      C2956   1.405       .  A
C2955      F2960   1.357       .  S
C2956      C2957   1.408       .  A
C2956      H2961   1.083       .  S
C2957      C2958   1.412       .  A
C2958      F2962   1.358       .  S
C2959      C2964   1.411       .  A
C2959      C2968   1.407       .  A
C2964      C2965   1.404       .  A
C2964      F2969   1.357       .  S
C2965      C2966   1.405       .  A
C2965      H2970   1.083       .  S
C2966      C2967   1.405       .  A
C2967      C2968   1.399       .  A
C2967      F2971   1.357       .  S
C2968      H2972   1.083       .  S
C2973      C2974   1.405       .  A
C2973      C2978   1.400       .  A
C2973      H2983   1.083       .  S
C2974      C2979   1.492       .  S
C2974      C2975   1.410       .  A
C2975      C2976   1.401       .  A
C2975      F2980   1.357       .  S
C2976      C2977   1.406       .  A
C2976      H2981   1.083       .  S
C2977      C2978   1.411       .  A
C2978      F2982   1.357       .  S
C2979      C2984   1.406       .  A
C2979      C2988   1.403       .  A
C2984      C2985   1.399       .  A
C2984      F2989   1.357       .  S
C2985      C2986   1.411       .  A
C2985      H2990   1.082       .  S
C2986      C2987   1.418       .  A
C2987      C2988   1.400       .  A
C2987      F2991   1.355       .  S
C2988      H2992   1.083       .  S
C2993      C2994   1.403       .  A
C2993      C2998   1.398       .  A
C2993      H3003   1.083       .  S
C2994      C2999   1.488       .  S
C2994      C2995   1.407       .  A
C2995      C2996   1.402       .  A
C2995      F3000   1.357       .  S
C2996      C2997   1.407       .  A
C2996      H3001   1.083       .  S
C2997      C2998   1.413       .  A
C2998      F3002   1.358       .  S
C2999      C3004   1.406       .  A
C2999      C3008   1.406       .  A
C3004      C3005   1.398       .  A
C3004      F3009   1.358       .  S
C3005      C3006   1.406       .  A
C3005      H3010   1.083       .  S
C3006      C3007   1.408       .  A
C3007      C3008   1.402       .  A
C3007      F3011   1.357       .  S
C3008      H3012   1.083       .  S
C3013      C3014   1.406       .  A
C3013      C3018   1.401       .  A
C3013      H3023   1.083       .  S
C3014      C3019   1.480       .  S
C3014      C3015   1.402       .  A
C3015      C3016   1.393       .  A
C3015      F3020   1.358       .  S
C3016      C3017   1.409       .  A
C3016      H3021   1.083       .  S
C3017      C3018   1.408       .  A
C3018      F3022   1.357       .  S
C3019      C3024   1.410       .  A
C3019      C3028   1.403       .  A
C3024      C3025   1.398       .  A
C3024      F3029   1.358       .  S
C3025      C3026   1.399       .  A
C3025      H3030   1.083       .  S
C3026      C3027   1.403       .  A
C3027      C3028   1.396       .  A
C3027      F3031   1.357       .  S
C3028      H3032   1.083       .  S
C3033      C3034   1.402       .  A
C3033      C3038   1.393       .  A
C3033      H3043   1.084       .  S
C3034      C3039   1.477       .  S
C3034      C3035   1.406       .  A
C3035      C3036   1.403       .  A
C3035      F3040   1.357       .  S
C3036      C3037   1.405       .  A
C3036      H3041   1.083       .  S
C3037      C3038   1.406       .  A
C3038      F3042   1.358       .  S
C3039      C3044   1.402       .  A
C3039      C3048   1.404       .  A
C3044      C3045   1.393       .  A
C3044      F3049   1.358       .  S
C3045      C3046   1.407       .  A
C3045      H3050   1.083       .  S
C3046      C3047   1.409       .  A
C3047      C3048   1.403       .  A
C3047      F3051   1.357       .  S
C3048      H3052   1.083       .  S
C3053      C3054   1.403       .  A
C3053      C3058   1.397       .  A
C3053      H3063   1.083       .  S
C3054      C3059   1.482       .  S
C3054      C3055   1.405       .  A
C3055      C3056   1.399       .  A
C3055      F3060   1.358       .  S
C3056      C3057   1.409       .  A
C3056      H3061   1.083       .  S
C3057      C3058   1.410       .  A
C3058      F3062   1.357       .  S
C3059      C3064   1.406       .  A
C3059      C3068   1.404       .  A
C3064      C3065   1.397       .  A
C3064      F3069   1.357       .  S
C3065      C3066   1.404       .  A
C3065      H3070   1.083       .  S
C3066      C3067   1.409       .  A
C3067      C3068   1.399       .  A
C3067      F3071   1.357       .  S
C3068      H3072   1.083       .  S
C3073      C3074   1.404       .  A
C3073      C3078   1.400       .  A
C3073      H3083   1.083       .  S
C3074      C3079   1.486       .  S
C3074      C3075   1.407       .  A
C3075      C3076   1.400       .  A
C3075      F3080   1.358       .  S
C3076      C3077   1.401       .  A
C3076      H3081   1.076       .  S
C3077      C3078   1.408       .  A
C3078      F3082   1.357       .  S
C3079      C3084   1.407       .  A
C3079      C3088   1.404       .  A
C3084      C3085   1.401       .  A
C3084      F3089   1.357       .  S
C3085      C3086   1.407       .  A
C3085      H3090   1.083       .  S
C3086      C3087   1.409       .  A
C3087      C3088   1.399       .  A
C3087      F3091   1.357       .  S
C3088      H3092   1.083       .  S
C3093      C3094   1.407       .  A
C3093      C3098   1.402       .  A
C3093      H3103   1.083       .  S
C3094      C3099   1.488       .  S
C3094      C3095   1.406       .  A
C3095      C3096   1.395       .  A
C3095      F3100   1.357       .  S
C3096      C3097   1.406       .  A
C3096      H3101   1.083       .  S
C3097      C3098   1.410       .  A
C3098      F3102   1.357       .  S
C3099      C3104   1.406       .  A
C3099      C3108   1.404       .  A
C3104      C3105   1.401       .  A
C3104      F3109   1.357       .  S
C3105      C3106   1.410       .  A
C3105      H3110   1.083       .  S
C3106      C3107   1.408       .  A
C3107      C3108   1.397       .  A
C3107      F3111   1.351       .  S
C3108      H3112   1.083       .  S
C3113      C3114   1.401       .  A
C3113      C3118   1.397       .  A
C3113      H3123   1.083       .  S
C3114      C3119   1.482       .  S
C3114      C3115   1.404       .  A
C3115      C3116   1.397       .  A
C3115      F3120   1.358       .  S
C3116      C3117   1.411       .  A
C3116      H3121   1.076       .  S
C3117      C3118   1.414       .  A
C3118      F3122   1.358       .  S
C3119      C3124   1.406       .  A
C3119      C3128   1.403       .  A
C3124      C3125   1.395       .  A
C3124      F3129   1.358       .  S
C3125      C3126   1.406       .  A
C3125      H3130   1.083       .  S
C3126      C3127   1.412       .  A
C3127      C3128   1.400       .  A
C3127      F3131   1.357       .  S
C3128      H3132   1.083       .  S
C3133      C3134   1.403       .  A
C3133      C3138   1.398       .  A
C3133      H3143   1.083       .  S
C3134      C3139   1.484       .  S
C3134      C3135   1.407       .  A
C3135      C3136   1.401       .  A
C3135      F3140   1.357       .  S
C3136      C3137   1.404       .  A
C3136      H3141   1.083       .  S
C3137      C3138   1.409       .  A
C3138      F3142   1.358       .  S
C3139      C3144   1.404       .  A
C3139      C3148   1.406       .  A
C3144      C3145   1.397       .  A
C3144      F3149   1.357       .  S
C3145      C3146   1.408       .  A
C3145      H3150   1.083       .  S
C3146      C3147   1.409       .  A
C3147      C3148   1.403       .  A
C3147      F3151   1.357       .  S
C3148      H3152   1.083       .  S
C3153      C3154   1.405       .  A
C3153      C3158   1.402       .  A
C3153      H3163   1.083       .  S
C3154      C3159   1.494       .  S
C3154      C3155   1.410       .  A
C3155      C3156   1.401       .  A
C3155      F3160   1.357       .  S
C3156      C3157   1.402       .  A
C3156      H3161   1.079       .  S
C3157      C3158   1.411       .  A
C3158      F3162   1.357       .  S
C3159      C3164   1.410       .  A
C3159      C3168   1.402       .  A
C3164      C3165   1.406       .  A
C3164      F3169   1.357       .  S
C3165      C3166   1.408       .  A
C3165      H3170   1.083       .  S
C3166      C3167   1.414       .  A
C3167      C3168   1.397       .  A
C3167      F3171   1.357       .  S
C3168      H3172   1.083       .  S
C3173      C3174   1.405       .  A
C3173      C3178   1.400       .  A
C3173      H3183   1.083       .  S
C3174      C3179   1.495       .  S
C3174      C3175   1.409       .  A
C3175      C3176   1.402       .  A
C3175      F3180   1.357       .  S
C3176      C3177   1.407       .  A
C3176      H3181   1.078       .  S
C3177      C3178   1.413       .  A
C3178      F3182   1.357       .  S
C3179      C3184   1.410       .  A
C3179      C3188   1.407       .  A
C3184      C3185   1.401       .  A
C3184      F3189   1.357       .  S
C3185      C3186   1.406       .  A
C3185      H3190   1.083       .  S
C3186      C3187   1.410       .  A
C3187      C3188   1.402       .  A
C3187      F3191   1.357       .  S
C3188      H3192   1.083       .  S
C3193      C3194   1.402       .  A
C3193      C3198   1.398       .  A
C3193      H3203   1.083       .  S
C3194      C3199   1.488       .  S
C3194      C3195   1.405       .  A
C3195      C3196   1.399       .  A
C3195      F3200   1.358       .  S
C3196      C3197   1.412       .  A
C3196      H3201   1.079       .  S
C3197      C3198   1.415       .  A
C3198      F3202   1.357       .  S
C3199      C3204   1.410       .  A
C3199      C3208   1.405       .  A
C3204      C3205   1.399       .  A
C3204      F3209   1.357       .  S
C3205      C3206   1.403       .  A
C3205      H3210   1.083       .  S
C3206      C3207   1.408       .  A
C3207      C3208   1.399       .  A
C3207      F3211   1.358       .  S
C3208      H3212   1.083       .  S
C3213      C3214   1.405       .  A
C3213      C3218   1.401       .  A
C3213      H3223   1.083       .  S
C3214      C3219   1.487       .  S
C3214      C3215   1.409       .  A
C3215      C3216   1.398       .  A
C3215      F3220   1.357       .  S
C3216      C3217   1.402       .  A
C3216      H3221   1.083       .  S
C3217      C3218   1.409       .  A
C3218      F3222   1.357       .  S
C3219      C3224   1.405       .  A
C3219      C3228   1.407       .  A
C3224      C3225   1.395       .  A
C3224      F3229   1.358       .  S
C3225      C3226   1.409       .  A
C3225      H3230   1.083       .  S
C3226      C3227   1.410       .  A
C3227      C3228   1.404       .  A
C3227      F3231   1.357       .  S
C3228      H3232   1.083       .  S
C3233      C3234   1.407       .  A
C3233      C3238   1.399       .  A
C3233      H3243   1.083       .  S
C3234      C3239   1.481       .  S
C3234      C3235   1.404       .  A
C3235      C3236   1.396       .  A
C3235      F3240   1.357       .  S
C3236      C3237   1.405       .  A
C3236      H3241   1.083       .  S
C3237      C3238   1.403       .  A
C3238      F3242   1.357       .  S
C3239      C3244   1.404       .  A
C3239      C3248   1.405       .  A
C3244      C3245   1.393       .  A
C3244      F3249   1.358       .  S
C3245      C3246   1.406       .  A
C3245      H3250   1.083       .  S
C3246      C3247   1.411       .  A
C3247      C3248   1.402       .  A
C3247      F3251   1.357       .  S
C3248      H3252   1.083       .  S
C3253      C3254   1.405       .  A
C3253      C3258   1.401       .  A
C3253      H3263   1.083       .  S
C3254      C3259   1.482       .  S
C3254      C3255   1.406       .  A
C3255      C3256   1.396       .  A
C3255      F3260   1.358       .  S
C3256      C3257   1.404       .  A
C3256      H3261   1.083       .  S
C3257      C3258   1.407       .  A
C3258      F3262   1.357       .  S
C3259      C3264   1.403       .  A
C3259      C3268   1.404       .  A
C3264      C3265   1.395       .  A
C3264      F3269   1.358       .  S
C3265      C3266   1.409       .  A
C3265      H3270   1.083       .  S
C3266      C3267   1.411       .  A
C3267      C3268   1.403       .  A
C3267      F3271   1.357       .  S
C3268      H3272   1.083       .  S
C3273      C3274   1.401       .  A
C3273      C3278   1.395       .  A
C3273      H3283   1.083       .  S
C3274      C3279   1.483       .  S
C3274      C3275   1.406       .  A
C3275      C3276   1.400       .  A
C3275      F3280   1.357       .  S
C3276      C3277   1.410       .  A
C3276      H3281   1.077       .  S
C3277      C3278   1.414       .  A
C3278      F3282   1.358       .  S
C3279      C3284   1.406       .  A
C3279      C3288   1.404       .  A
C3284      C3285   1.398       .  A
C3284      F3289   1.357       .  S
C3285      C3286   1.406       .  A
C3285      H3290   1.083       .  S
C3286      C3287   1.410       .  A
C3287      C3288   1.398       .  A
C3287      F3291   1.358       .  S
C3288      H3292   1.083       .  S
C3293      C3294   1.405       .  A
C3293      C3298   1.400       .  A
C3293      H3303   1.083       .  S
C3294      C3299   1.486       .  S
C3294      C3295   1.406       .  A
C3295      C3296   1.397       .  A
C3295      F3300   1.358       .  S
C3296      C3297   1.407       .  A
C3296      H3301   1.083       .  S
C3297      C3298   1.410       .  A
C3298      F3302   1.357       .  S
C3299      C3304   1.409       .  A
C3299      C3308   1.406       .  A
C3304      C3305   1.398       .  A
C3304      F3309   1.357       .  S
C3305      C3306   1.399       .  A
C3305      H3310   1.079       .  S
C3306      C3307   1.405       .  A
C3307      C3308   1.398       .  A
C3307      F3311   1.358       .  S
C3308      H3312   1.083       .  S
C3313      C3314   1.400       .  A
C3313      C3318   1.394       .  A
C3313      H3323   1.083       .  S
C3314      C3319   1.481       .  S
C3314      C3315   1.404       .  A
C3315      C3316   1.398       .  A
C3315      F3320   1.358       .  S
C3316      C3317   1.411       .  A
C3316      H3321   1.078       .  S
C3317      C3318   1.414       .  A
C3318      F3322   1.357       .  S
C3319      C3324   1.409       .  A
C3319      C3328   1.404       .  A
C3324      C3325   1.395       .  A
C3324      F3329   1.358       .  S
C3325      C3326   1.401       .  A
C3325      H3330   1.084       .  S
C3326      C3327   1.406       .  A
C3327      C3328   1.398       .  A
C3327      F3331   1.358       .  S
C3328      H3332   1.083       .  S
C3333      C3334   1.405       .  A
C3333      C3338   1.404       .  A
C3333      H3343   1.083       .  S
C3334      C3339   1.483       .  S
C3334      C3335   1.405       .  A
C3335      C3336   1.396       .  A
C3335      F3340   1.358       .  S
C3336      C3337   1.403       .  A
C3336      H3341   1.082       .  S
C3337      C3338   1.409       .  A
C3338      F3342   1.357       .  S
C3339      C3344   1.403       .  A
C3339      C3348   1.404       .  A
C3344      C3345   1.396       .  A
C3344      F3349   1.358       .  S
C3345      C3346   1.409       .  A
C3345      H3350   1.083       .  S
C3346      C3347   1.412       .  A
C3347      C3348   1.404       .  A
C3347      F3351   1.357   1_554  S
C3348      H3352   1.083       .  S
C3353      C3354   1.405       .  A
C3353      C3358   1.399       .  A
C3353      H3363   1.083       .  S
C3354      C3359   1.489       .  S
C3354      C3355   1.409       .  A
C3355      C3356   1.400       .  A
C3355      F3360   1.357       .  S
C3356      C3357   1.405       .  A
C3356      H3361   1.083       .  S
C3357      C3358   1.408       .  A
C3358      F3362   1.358       .  S
C3359      C3364   1.408       .  A
C3359      C3368   1.401       .  A
C3364      C3365   1.403       .  A
C3364      F3369   1.358       .  S
C3365      C3366   1.410       .  A
C3365      H3370   1.077       .  S
C3366      C3367   1.414       .  A
C3367      C3368   1.395       .  A
C3367      F3371   1.358       .  S
C3368      H3372   1.083       .  S
C3373      C3374   1.403       .  A
C3373      C3378   1.393       .  A
C3373      H3383   1.083       .  S
C3374      C3379   1.483       .  S
C3374      C3375   1.409       .  A
C3375      C3376   1.402       .  A
C3375      F3380   1.357       .  S
C3376      C3377   1.403       .  A
C3376      H3381   1.083       .  S
C3377      C3378   1.406       .  A
C3378      F3382   1.358       .  S
C3379      C3384   1.406       .  A
C3379      C3388   1.403       .  A
C3384      C3385   1.401       .  A
C3384      F3389   1.357       .  S
C3385      C3386   1.409       .  A
C3385      H3390   1.083       .  S
C3386      C3387   1.411       .  A
C3387      C3388   1.395       .  A
C3387      F3391   1.357       .  S
C3388      H3392   1.083       .  S
C3393      C3394   1.404       .  A
C3393      C3398   1.399       .  A
C3393      H3403   1.083       .  S
C3394      C3399   1.488       .  S
C3394      C3395   1.409       .  A
C3395      C3396   1.400       .  A
C3395      F3400   1.358       .  S
C3396      C3397   1.406       .  A
C3396      H3401   1.083       .  S
C3397      C3398   1.410       .  A
C3398      F3402   1.357       .  S
C3399      C3404   1.405       .  A
C3399      C3408   1.402       .  A
C3404      C3405   1.396       .  A
C3404      F3409   1.357       .  S
C3405      C3406   1.411       .  A
C3405      H3410   1.084       .  S
C3406      C3407   1.418       .  A
C3407      C3408   1.400       .  A
C3407      F3411   1.352       .  S
C3408      H3412   1.083       .  S
C3413      C3414   1.406       .  A
C3413      C3418   1.403       .  A
C3413      H3423   1.083       .  S
C3414      C3419   1.480       .  S
C3414      C3415   1.405       .  A
C3415      C3416   1.393       .  A
C3415      F3420   1.358       .  S
C3416      C3417   1.402       .  A
C3416      H3421   1.084       .  S
C3417      C3418   1.406       .  A
C3418      F3422   1.357       .  S
C3419      C3424   1.408       .  A
C3419      C3428   1.401       .  A
C3424      C3425   1.399       .  A
C3424      F3429   1.358       .  S
C3425      C3426   1.403       .  A
C3425      H3430   1.083       .  S
C3426      C3427   1.410       .  A
C3427      C3428   1.398       .  A
C3427      F3431   1.358       .  S
C3428      H3432   1.083       .  S
C3433      C3434   1.407       .  A
C3433      C3438   1.402       .  A
C3433      H3443   1.083       .  S
C3434      C3439   1.485       .  S
C3434      C3435   1.407       .  A
C3435      C3436   1.399       .  A
C3435      F3440   1.357       .  S
C3436      C3437   1.402       .  A
C3436      H3441   1.083       .  S
C3437      C3438   1.404       .  A
C3438      F3442   1.357       .  S
C3439      C3444   1.407       .  A
C3439      C3448   1.401       .  A
C3444      C3445   1.402       .  A
C3444      F3449   1.357       .  S
C3445      C3446   1.407       .  A
C3445      H3450   1.083       .  S
C3446      C3447   1.413       .  A
C3447      C3448   1.398       .  A
C3447      F3451   1.358       .  S
C3448      H3452   1.083       .  S
C3453      C3454   1.404       .  A
C3453      C3458   1.402       .  A
C3453      H3463   1.083       .  S
C3454      C3459   1.497       .  S
C3454      C3455   1.406       .  A
C3455      C3456   1.401       .  A
C3455      F3460   1.357       .  S
C3456      C3457   1.414       .  A
C3456      H3461   1.083       .  S
C3457      C3458   1.418       .  A
C3458      F3462   1.351       .  S
C3459      C3464   1.410       .  A
C3459      C3468   1.407       .  A
C3464      C3465   1.404       .  A
C3464      F3469   1.357       .  S
C3465      C3466   1.407       .  A
C3465      H3470   1.083       .  S
C3466      C3467   1.408       .  A
C3467      C3468   1.401       .  A
C3467      F3471   1.357       .  S
C3468      H3472   1.083       .  S
C3473      C3474   1.405       .  A
C3473      C3478   1.401       .  A
C3473      H3483   1.083       .  S
C3474      C3479   1.487       .  S
C3474      C3475   1.406       .  A
C3475      C3476   1.398       .  A
C3475      F3480   1.358       .  S
C3476      C3477   1.408       .  A
C3476      H3481   1.083       .  S
C3477      C3478   1.411       .  A
C3478      F3482   1.357       .  S
C3479      C3484   1.406       .  A
C3479      C3488   1.405       .  A
C3484      C3485   1.400       .  A
C3484      F3489   1.357       .  S
C3485      C3486   1.408       .  A
C3485      H3490   1.083       .  S
C3486      C3487   1.408       .  A
C3487      C3488   1.398       .  A
C3487      F3491   1.357       .  S
C3488      H3492   1.083       .  S
C3493      C3494   1.404       .  A
C3493      C3498   1.399       .  A
C3493      H3503   1.083       .  S
C3494      C3499   1.494       .  S
C3494      C3495   1.412       .  A
C3495      C3496   1.404       .  A
C3495      F3500   1.357       .  S
C3496      C3497   1.402       .  A
C3496      H3501   1.083       .  S
C3497      C3498   1.410       .  A
C3498      F3502   1.358       .  S
C3499      C3504   1.410       .  A
C3499      C3508   1.405       .  A
C3504      C3505   1.403       .  A
C3504      F3509   1.357       .  S
C3505      C3506   1.407       .  A
C3505      H3510   1.083       .  S
C3506      C3507   1.411       .  A
C3507      C3508   1.400       .  A
C3507      F3511   1.357       .  S
C3508      H3512   1.083       .  S
C3513      C3514   1.406       .  A
C3513      C3518   1.403       .  A
C3513      H3523   1.083       .  S
C3514      C3519   1.491       .  S
C3514      C3515   1.406       .  A
C3515      C3516   1.399       .  A
C3515      F3520   1.357       .  S
C3516      C3517   1.407       .  A
C3516      H3521   1.082       .  S
C3517      C3518   1.411       .  A
C3518      F3522   1.357       .  S
C3519      C3524   1.405       .  A
C3519      C3528   1.407       .  A
C3524      C3525   1.398       .  A
C3524      F3529   1.357       .  S
C3525      C3526   1.409       .  A
C3525      H3530   1.083       .  S
C3526      C3527   1.410       .  A
C3527      C3528   1.403       .  A
C3527      F3531   1.357       .  S
C3528      H3532   1.083       .  S
C3533      C3534   1.405       .  A
C3533      C3538   1.403       .  A
C3533      H3543   1.083       .  S
C3534      C3539   1.488       .  S
C3534      C3535   1.405       .  A
C3535      C3536   1.400       .  A
C3535      F3540   1.358       .  S
C3536      C3537   1.410       .  A
C3536      H3541   1.083       .  S
C3537      C3538   1.411       .  A
C3538      F3542   1.357       .  S
C3539      C3544   1.407       .  A
C3539      C3548   1.404       .  A
C3544      C3545   1.402       .  A
C3544      F3549   1.357       .  S
C3545      C3546   1.406       .  A
C3545      H3550   1.083       .  S
C3546      C3547   1.411       .  A
C3547      C3548   1.401       .  A
C3547      F3551   1.357       .  S
C3548      H3552   1.083       .  S
C3553      C3554   1.405       .  A
C3553      C3558   1.402       .  A
C3553      H3563   1.083       .  S
C3554      C3559   1.481       .  S
C3554      C3555   1.405       .  A
C3555      C3556   1.400       .  A
C3555      F3560   1.357       .  S
C3556      C3557   1.405       .  A
C3556      H3561   1.083       .  S
C3557      C3558   1.404       .  A
C3558      F3562   1.357       .  S
C3559      C3564   1.406       .  A
C3559      C3568   1.402       .  A
C3564      C3565   1.404       .  A
C3564      F3569   1.357       .  S
C3565      C3566   1.405       .  A
C3565      H3570   1.083       .  S
C3566      C3567   1.407       .  A
C3567      C3568   1.400       .  A
C3567      F3571   1.358       .  S
C3568      H3572   1.083       .  S
C3573      C3574   1.402       .  A
C3573      C3578   1.398       .  A
C3573      H3583   1.083       .  S
C3574      C3579   1.473       .  S
C3574      C3575   1.402       .  A
C3575      C3576   1.393       .  A
C3575      F3580   1.358       .  S
C3576      C3577   1.407       .  A
C3576      H3581   1.083       .  S
C3577      C3578   1.410       .  A
C3578      F3582   1.357       .  S
C3579      C3584   1.403       .  A
C3579      C3588   1.397       .  A
C3584      C3585   1.397       .  A
C3584      F3589   1.358       .  S
C3585      C3586   1.409       .  A
C3585      H3590   1.077       .  S
C3586      C3587   1.416       .  A
C3587      C3588   1.394       .  A
C3587      F3591   1.358       .  S
C3588      H3592   1.084       .  S
C3593      C3594   1.408       .  A
C3593      C3598   1.401       .  A
C3593      H3603   1.083       .  S
C3594      C3599   1.491       .  S
C3594      C3595   1.409       .  A
C3595      C3596   1.398       .  A
C3595      F3600   1.358       .  S
C3596      C3597   1.403       .  A
C3596      H3601   1.083       .  S
C3597      C3598   1.405       .  A
C3598      F3602   1.357       .  S
C3599      C3604   1.407       .  A
C3599      C3608   1.403       .  A
C3604      C3605   1.402       .  A
C3604      F3609   1.358       .  S
C3605      C3606   1.412       .  A
C3605      H3610   1.077       .  S
C3606      C3607   1.412       .  A
C3607      C3608   1.395       .  A
C3607      F3611   1.358       .  S
C3608      H3612   1.083       .  S
C3613      C3614   1.406       .  A
C3613      C3618   1.400       .  A
C3613      H3623   1.083       .  S
C3614      C3619   1.484       .  S
C3614      C3615   1.405       .  A
C3615      C3616   1.398       .  A
C3615      F3620   1.358       .  S
C3616      C3617   1.408       .  A
C3616      H3621   1.083       .  S
C3617      C3618   1.408       .  A
C3618      F3622   1.357       .  S
C3619      C3624   1.404       .  A
C3619      C3628   1.401       .  A
C3624      C3625   1.399       .  A
C3624      F3629   1.358       .  S
C3625      C3626   1.412       .  A
C3625      H3630   1.077       .  S
C3626      C3627   1.415       .  A
C3627      C3628   1.398       .  A
C3627      F3631   1.357       .  S
C3628      H3632   1.083       .  S
C3633      C3634   1.405       .  A
C3633      C3638   1.403       .  A
C3633      H3643   1.083       .  S
C3634      C3639   1.486       .  S
C3634      C3635   1.404       .  A
C3635      C3636   1.398       .  A
C3635      F3640   1.358       .  S
C3636      C3637   1.409       .  A
C3636      H3641   1.083       .  S
C3637      C3638   1.412       .  A
C3638      F3642   1.357       .  S
C3639      C3644   1.407       .  A
C3639      C3648   1.404       .  A
C3644      C3645   1.402       .  A
C3644      F3649   1.357       .  S
C3645      C3646   1.405       .  A
C3645      H3650   1.083       .  S
C3646      C3647   1.409       .  A
C3647      C3648   1.399       .  A
C3647      F3651   1.357       .  S
C3648      H3652   1.083       .  S
C3653      C3654   1.408       .  A
C3653      C3658   1.401       .  A
C3653      H3663   1.083       .  S
C3654      C3659   1.489       .  S
C3654      C3655   1.405       .  A
C3655      C3656   1.395       .  A
C3655      F3660   1.358       .  S
C3656      C3657   1.409       .  A
C3656      H3661   1.082       .  S
C3657      C3658   1.408       .  A
C3658      F3662   1.356       .  S
C3659      C3664   1.407       .  A
C3659      C3668   1.409       .  A
C3664      C3665   1.395       .  A
C3664      F3669   1.357       .  S
C3665      C3666   1.404       .  A
C3665      H3670   1.084       .  S
C3666      C3667   1.406       .  A
C3667      C3668   1.402       .  A
C3667      F3671   1.357       .  S
C3668      H3672   1.083       .  S
C3673      C3674   1.398       .  A
C3673      C3678   1.396       .  A
C3673      H3683   1.083       .  S
C3674      C3679   1.476       .  S
C3674      C3675   1.403       .  A
C3675      C3676   1.398       .  A
C3675      F3680   1.358       .  S
C3676      C3677   1.410       .  A
C3676      H3681   1.077       .  S
C3677      C3678   1.416       .  A
C3678      F3682   1.358       .  S
C3679      C3684   1.402       .  A
C3679      C3688   1.402       .  A
C3684      C3685   1.393       .  A
C3684      F3689   1.358       .  S
C3685      C3686   1.408       .  A
C3685      H3690   1.083       .  S
C3686      C3687   1.411       .  A
C3687      C3688   1.401       .  A
C3687      F3691   1.357       .  S
C3688      H3692   1.083       .  S
C3693      C3694   1.403       .  A
C3693      C3698   1.401       .  A
C3693      H3703   1.083       .  S
C3694      C3699   1.483       .  S
C3694      C3695   1.403       .  A
C3695      C3696   1.400       .  A
C3695      F3700   1.358       .  S
C3696      C3697   1.410       .  A
C3696      H3701   1.083       .  S
C3697      C3698   1.411       .  A
C3698      F3702   1.357       .  S
C3699      C3704   1.405       .  A
C3699      C3708   1.403       .  A
C3704      C3705   1.399       .  A
C3704      F3709   1.357       .  S
C3705      C3706   1.404       .  A
C3705      H3710   1.083       .  S
C3706      C3707   1.411       .  A
C3707      C3708   1.402       .  A
C3707      F3711   1.357       .  S
C3708      H3712   1.083       .  S
C3713      C3714   1.407       .  A
C3713      C3718   1.403       .  A
C3713      H3723   1.083       .  S
C3714      C3719   1.494       .  S
C3714      C3715   1.407       .  A
C3715      C3716   1.401       .  A
C3715      F3720   1.358       .  S
C3716      C3717   1.410       .  A
C3716      H3721   1.083       .  S
C3717      C3718   1.411       .  A
C3718      F3722   1.357       .  S
C3719      C3724   1.407       .  A
C3719      C3728   1.406       .  A
C3724      C3725   1.402       .  A
C3724      F3729   1.357       .  S
C3725      C3726   1.409       .  A
C3725      H3730   1.082       .  S
C3726      C3727   1.410       .  A
C3727      C3728   1.402       .  A
C3727      F3731   1.355       .  S
C3728      H3732   1.083       .  S
C3733      C3734   1.403       .  A
C3733      C3738   1.395       .  A
C3733      H3743   1.083       .  S
C3734      C3739   1.490       .  S
C3734      C3735   1.412       .  A
C3735      C3736   1.402       .  A
C3735      F3740   1.357       .  S
C3736      C3737   1.403       .  A
C3736      H3741   1.083       .  S
C3737      C3738   1.410       .  A
C3738      F3742   1.358       .  S
C3739      C3744   1.412       .  A
C3739      C3748   1.402       .  A
C3744      C3745   1.403       .  A
C3744      F3749   1.358       .  S
C3745      C3746   1.404       .  A
C3745      H3750   1.081       .  S
C3746      C3747   1.411       .  A
C3747      C3748   1.393       .  A
C3747      F3751   1.357       .  S
C3748      H3752   1.083       .  S
C3753      C3754   1.405       .  A
C3753      C3758   1.396       .  A
C3753      H3763   1.083       .  S
C3754      C3759   1.491       .  S
C3754      C3755   1.412       .  A
C3755      C3756   1.401       .  A
C3755      F3760   1.357       .  S
C3756      C3757   1.400       .  A
C3756      H3761   1.081       .  S
C3757      C3758   1.407       .  A
C3758      F3762   1.358       .  S
C3759      C3764   1.410       .  A
C3759      C3768   1.403       .  A
C3764      C3765   1.402       .  A
C3764      F3769   1.357       .  S
C3765      C3766   1.406       .  A
C3765      H3770   1.083       .  S
C3766      C3767   1.413       .  A
C3767      C3768   1.396       .  A
C3767      F3771   1.358       .  S
C3768      H3772   1.083       .  S
C3773      C3774   1.403       .  A
C3773      C3778   1.397       .  A
C3773      H3783   1.083       .  S
C3774      C3779   1.487       .  S
C3774      C3775   1.409       .  A
C3775      C3776   1.401       .  A
C3775      F3780   1.357       .  S
C3776      C3777   1.405       .  A
C3776      H3781   1.083       .  S
C3777      C3778   1.410       .  A
C3778      F3782   1.357       .  S
C3779      C3784   1.407       .  A
C3779      C3788   1.404       .  A
C3784      C3785   1.399       .  A
C3784      F3789   1.357       .  S
C3785      C3786   1.407       .  A
C3785      H3790   1.083       .  S
C3786      C3787   1.412       .  A
C3787      C3788   1.399       .  A
C3787      F3791   1.357       .  S
C3788      H3792   1.083       .  S
C3793      C3794   1.400       .  A
C3793      C3798   1.394       .  A
C3793      H3803   1.084       .  S
C3794      C3799   1.478       .  S
C3794      C3795   1.406       .  A
C3795      C3796   1.402       .  A
C3795      F3800   1.357       .  S
C3796      C3797   1.407       .  A
C3796      H3801   1.083       .  S
C3797      C3798   1.410       .  A
C3798      F3802   1.358       .  S
C3799      C3804   1.407       .  A
C3799      C3808   1.401       .  A
C3804      C3805   1.400       .  A
C3804      F3809   1.357       .  S
C3805      C3806   1.402       .  A
C3805      H3810   1.083       .  S
C3806      C3807   1.408       .  A
C3807      C3808   1.397       .  A
C3807      F3811   1.358       .  S
C3808      H3812   1.083       .  S
C3813      C3814   1.407       .  A
C3813      C3818   1.404       .  A
C3813      H3823   1.083       .  S
C3814      C3819   1.494       .  S
C3814      C3815   1.408       .  A
C3815      C3816   1.399       .  A
C3815      F3820   1.358       .  S
C3816      C3817   1.408       .  A
C3816      H3821   1.083       .  S
C3817      C3818   1.411       .  A
C3818      F3822   1.357       .  S
C3819      C3824   1.409       .  A
C3819      C3828   1.406       .  A
C3824      C3825   1.403       .  A
C3824      F3829   1.357       .  S
C3825      C3826   1.406       .  A
C3825      H3830   1.083       .  S
C3826      C3827   1.409       .  A
C3827      C3828   1.400       .  A
C3827      F3831   1.357       .  S
C3828      H3832   1.083       .  S
C3833      C3834   1.412       .  A
C3833      C3838   1.403       .  A
C3833      H3843   1.082       .  S
C3834      C3839   1.500       .  S
C3834      C3835   1.411       .  A
C3835      C3836   1.401       .  A
C3835      F3840   1.357       .  S
C3836      C3837   1.405       .  A
C3836      H3841   1.083       .  S
C3837      C3838   1.402       .  A
C3838      F3842   1.357       .  S
C3839      C3844   1.410       .  A
C3839      C3848   1.411       .  A
C3844      C3845   1.400       .  A
C3844      F3849   1.357       .  S
C3845      C3846   1.408       .  A
C3845      H3850   1.083       .  S
C3846      C3847   1.406       .  A
C3847      C3848   1.403       .  A
C3847      F3851   1.357       .  S
C3848      H3852   1.082       .  S
C3853      C3854   1.408       .  A
C3853      C3858   1.403       .  A
C3853      H3863   1.083       .  S
C3854      C3859   1.490       .  S
C3854      C3855   1.409       .  A
C3855      C3856   1.399       .  A
C3855      F3860   1.357       .  S
C3856      C3857   1.401       .  A
C3856      H3861   1.084       .  S
C3857      C3858   1.403       .  A
C3858      F3862   1.357       .  S
C3859      C3864   1.409       .  A
C3859      C3868   1.403       .  A
C3864      C3865   1.404       .  A
C3864      F3869   1.357       .  S
C3865      C3866   1.406       .  A
C3865      H3870   1.083       .  S
C3866      C3867   1.411       .  A
C3867      C3868   1.399       .  A
C3867      F3871   1.358       .  S
C3868      H3872   1.083       .  S
C3873      C3874   1.403       .  A
C3873      C3878   1.399       .  A
C3873      H3883   1.083       .  S
C3874      C3879   1.491       .  S
C3874      C3875   1.406       .  A
C3875      C3876   1.404       .  A
C3875      F3880   1.357       .  S
C3876      C3877   1.413       .  A
C3876      H3881   1.078       .  S
C3877      C3878   1.414       .  A
C3878      F3882   1.358       .  S
C3879      C3884   1.408       .  A
C3879      C3888   1.405       .  A
C3884      C3885   1.404       .  A
C3884      F3889   1.357       .  S
C3885      C3886   1.407       .  A
C3885      H3890   1.083       .  S
C3886      C3887   1.410       .  A
C3887      C3888   1.399       .  A
C3887      F3891   1.358       .  S
C3888      H3892   1.083       .  S
C3893      C3894   1.406       .  A
C3893      C3898   1.402       .  A
C3893      H3903   1.083       .  S
C3894      C3899   1.482       .  S
C3894      C3895   1.405       .  A
C3895      C3896   1.394       .  A
C3895      F3900   1.357       .  S
C3896      C3897   1.403       .  A
C3896      H3901   1.083       .  S
C3897      C3898   1.407       .  A
C3898      F3902   1.358       .  S
C3899      C3904   1.405       .  A
C3899      C3908   1.402       .  A
C3904      C3905   1.397       .  A
C3904      F3909   1.358       .  S
C3905      C3906   1.407       .  A
C3905      H3910   1.083       .  S
C3906      C3907   1.413       .  A
C3907      C3908   1.401       .  A
C3907      F3911   1.357       .  S
C3908      H3912   1.083       .  S
C3913      C3914   1.402       .  A
C3913      C3918   1.396       .  A
C3913      H3923   1.083       .  S
C3914      C3919   1.483       .  S
C3914      C3915   1.404       .  A
C3915      C3916   1.398       .  A
C3915      F3920   1.358       .  S
C3916      C3917   1.411       .  A
C3916      H3921   1.076       .  S
C3917      C3918   1.413       .  A
C3918      F3922   1.358       .  S
C3919      C3924   1.406       .  A
C3919      C3928   1.405       .  A
C3924      C3925   1.397       .  A
C3924      F3929   1.357       .  S
C3925      C3926   1.405       .  A
C3925      H3930   1.083       .  S
C3926      C3927   1.408       .  A
C3927      C3928   1.398       .  A
C3927      F3931   1.358       .  S
C3928      H3932   1.083       .  S
C3933      C3934   1.408       .  A
C3933      C3938   1.401       .  A
C3933      H3943   1.083       .  S
C3934      C3939   1.495       .  S
C3934      C3935   1.410       .  A
C3935      C3936   1.400       .  A
C3935      F3940   1.357       .  S
C3936      C3937   1.404       .  A
C3936      H3941   1.083       .  S
C3937      C3938   1.406       .  A
C3938      F3942   1.357       .  S
C3939      C3944   1.409       .  A
C3939      C3948   1.407       .  A
C3944      C3945   1.400       .  A
C3944      F3949   1.357       .  S
C3945      C3946   1.408       .  A
C3945      H3950   1.083       .  S
C3946      C3947   1.410       .  A
C3947      C3948   1.401       .  A
C3947      F3951   1.357       .  S
C3948      H3952   1.083       .  S
C3953      C3954   1.404       .  A
C3953      C3958   1.401       .  A
C3953      H3963   1.083       .  S
C3954      C3959   1.486       .  S
C3954      C3955   1.406       .  A
C3955      C3956   1.397       .  A
C3955      F3960   1.358       .  S
C3956      C3957   1.405       .  A
C3956      H3961   1.081       .  S
C3957      C3958   1.410       .  A
C3958      F3962   1.357       .  S
C3959      C3964   1.407       .  A
C3959      C3968   1.402       .  A
C3964      C3965   1.403       .  A
C3964      F3969   1.357       .  S
C3965      C3966   1.408       .  A
C3965      H3970   1.083   1_565  S
C3966      C3967   1.413       .  A
C3967      C3968   1.396       .  A
C3967      F3971   1.357       .  S
C3968      H3972   1.083       .  S
C3973      C3974   1.402       .  A
C3973      C3978   1.398       .  A
C3973      H3983   1.083       .  S
C3974      C3979   1.488       .  S
C3974      C3975   1.406       .  A
C3975      C3976   1.398       .  A
C3975      F3980   1.358       .  S
C3976      C3977   1.411       .  A
C3976      H3981   1.079       .  S
C3977      C3978   1.415       .  A
C3978      F3982   1.357       .  S
C3979      C3984   1.410       .  A
C3979      C3988   1.404       .  A
C3984      C3985   1.399       .  A
C3984      F3989   1.357       .  S
C3985      C3986   1.403       .  A
C3985      H3990   1.083       .  S
C3986      C3987   1.408       .  A
C3987      C3988   1.397       .  A
C3987      F3991   1.358   1_565  S
C3988      H3992   1.083       .  S
C3993      C3994   1.401       .  A
C3993      C3998   1.399       .  A
C3993      H4003   1.083       .  S
C3994      C3999   1.480       .  S
C3994      C3995   1.405       .  A
C3995      C3996   1.399       .  A
C3995      F4000   1.357       .  S
C3996      C3997   1.406       .  A
C3996      H4001   1.082       .  S
C3997      C3998   1.413       .  A
C3998      F4002   1.357       .  S
C3999      C4004   1.404       .  A
C3999      C4008   1.405       .  A
C4004      C4005   1.397       .  A
C4004      F4009   1.358       .  S
C4005      C4006   1.407       .  A
C4005      H4010   1.083       .  S
C4006      C4007   1.407       .  A
C4007      C4008   1.401       .  A
C4007      F4011   1.357       .  S
C4008      H4012   1.083       .  S
C4013      C4014   1.402       .  A
C4013      C4018   1.395       .  A
C4013      H4023   1.083       .  S
C4014      C4019   1.489       .  S
C4014      C4015   1.407       .  A
C4015      C4016   1.401       .  A
C4015      F4020   1.357       .  S
C4016      C4017   1.411       .  A
C4016      H4021   1.077       .  S
C4017      C4018   1.413       .  A
C4018      F4022   1.358       .  S
C4019      C4024   1.409       .  A
C4019      C4028   1.405       .  A
C4024      C4025   1.400       .  A
C4024      F4029   1.357       .  S
C4025      C4026   1.406       .  A
C4025      H4030   1.083       .  S
C4026      C4027   1.409       .  A
C4027      C4028   1.398       .  A
C4027      F4031   1.357       .  S
C4028      H4032   1.083       .  S
C4033      C4034   1.406       .  A
C4033      C4038   1.404       .  A
C4033      H4043   1.083       .  S
C4034      C4039   1.488       .  S
C4034      C4035   1.405       .  A
C4035      C4036   1.401       .  A
C4035      F4040   1.357       .  S
C4036      C4037   1.407       .  A
C4036      H4041   1.083       .  S
C4037      C4038   1.408       .  A
C4038      F4042   1.357       .  S
C4039      C4044   1.406       .  A
C4039      C4048   1.403       .  A
C4044      C4045   1.402       .  A
C4044      F4049   1.357       .  S
C4045      C4046   1.408       .  A
C4045      H4050   1.083       .  S
C4046      C4047   1.414       .  A
C4047      C4048   1.403       .  A
C4047      F4051   1.357       .  S
C4048      H4052   1.083       .  S
C4053      C4054   1.404       .  A
C4053      C4058   1.400       .  A
C4053      H4063   1.083       .  S
C4054      C4059   1.490       .  S
C4054      C4055   1.404       .  A
C4055      C4056   1.399       .  A
C4055      F4060   1.358       .  S
C4056      C4057   1.414       .  A
C4056      H4061   1.080       .  S
C4057      C4058   1.415       .  A
C4058      F4062   1.356       .  S
C4059      C4064   1.408       .  A
C4059      C4068   1.406       .  A
C4064      C4065   1.397       .  A
C4064      F4069   1.358       .  S
C4065      C4066   1.406       .  A
C4065      H4070   1.083       .  S
C4066      C4067   1.411       .  A
C4067      C4068   1.402       .  A
C4067      F4071   1.357       .  S
C4068      H4072   1.083       .  S
C4073      C4074   1.409       .  A
C4073      C4078   1.397       .  A
C4073      H4083   1.083       .  S
C4074      C4079   1.499       .  S
C4074      C4075   1.413       .  A
C4075      C4076   1.403       .  A
C4075      F4080   1.357       .  S
C4076      C4077   1.404       .  A
C4076      H4081   1.083       .  S
C4077      C4078   1.406       .  A
C4078      F4082   1.358       .  S
C4079      C4084   1.412       .  A
C4079      C4088   1.405       .  A
C4084      C4085   1.405       .  A
C4084      F4089   1.357       .  S
C4085      C4086   1.410       .  A
C4085      H4090   1.078       .  S
C4086      C4087   1.412       .  A
C4087      C4088   1.394       .  A
C4087      F4091   1.358       .  S
C4088      H4092   1.082       .  S
C4093      C4094   1.402       .  A
C4093      C4098   1.398       .  A
C4093      H4103   1.083       .  S
C4094      C4099   1.483       .  S
C4094      C4095   1.407       .  A
C4095      C4096   1.400       .  A
C4095      F4100   1.358       .  S
C4096      C4097   1.407       .  A
C4096      H4101   1.083       .  S
C4097      C4098   1.411       .  A
C4098      F4102   1.357       .  S
C4099      C4104   1.403       .  A
C4099      C4108   1.401       .  A
C4104      C4105   1.399       .  A
C4104      F4109   1.358       .  S
C4105      C4106   1.413       .  A
C4105      H4110   1.076       .  S
C4106      C4107   1.414       .  A
C4107      C4108   1.398       .  A
C4107      F4111   1.357       .  S
C4108      H4112   1.083       .  S
C4113      C4114   1.404       .  A
C4113      C4118   1.400       .  A
C4113      H4123   1.083       .  S
C4114      C4119   1.491       .  S
C4114      C4115   1.408       .  A
C4115      C4116   1.405       .  A
C4115      F4120   1.357       .  S
C4116      C4117   1.409       .  A
C4116      H4121   1.083       .  S
C4117      C4118   1.411       .  A
C4118      F4122   1.357       .  S
C4119      C4124   1.409       .  A
C4119      C4128   1.404       .  A
C4124      C4125   1.402       .  A
C4124      F4129   1.357       .  S
C4125      C4126   1.403       .  A
C4125      H4130   1.081       .  S
C4126      C4127   1.410       .  A
C4127      C4128   1.402       .  A
C4127      F4131   1.357       .  S
C4128      H4132   1.083       .  S
C4133      C4134   1.404       .  A
C4133      C4138   1.401       .  A
C4133      H4143   1.083       .  S
C4134      C4139   1.494       .  S
C4134      C4135   1.412       .  A
C4135      C4136   1.404       .  A
C4135      F4140   1.357       .  S
C4136      C4137   1.403       .  A
C4136      H4141   1.083       .  S
C4137      C4138   1.409       .  A
C4138      F4142   1.357       .  S
C4139      C4144   1.411       .  A
C4139      C4148   1.401       .  A
C4144      C4145   1.408       .  A
C4144      F4149   1.357       .  S
C4145      C4146   1.409       .  A
C4145      H4150   1.083       .  S
C4146      C4147   1.415       .  A
C4147      C4148   1.397       .  A
C4147      F4151   1.357       .  S
C4148      H4152   1.083       .  S
C4153      C4154   1.403       .  A
C4153      C4158   1.395       .  A
C4153      H4163   1.083       .  S
C4154      C4159   1.487       .  S
C4154      C4155   1.410       .  A
C4155      C4156   1.403       .  A
C4155      F4160   1.357       .  S
C4156      C4157   1.404       .  A
C4156      H4161   1.083       .  S
C4157      C4158   1.408       .  A
C4158      F4162   1.358       .  S
C4159      C4164   1.410       .  A
C4159      C4168   1.406       .  A
C4164      C4165   1.398       .  A
C4164      F4169   1.357       .  S
C4165      C4166   1.399       .  A
C4165      H4170   1.084       .  S
C4166      C4167   1.404       .  A
C4167      C4168   1.400       .  A
C4167      F4171   1.357       .  S
C4168      H4172   1.083       .  S
C4173      C4174   1.404       .  A
C4173      C4178   1.399       .  A
C4173      H4183   1.083       .  S
C4174      C4179   1.491       .  S
C4174      C4175   1.410       .  A
C4175      C4176   1.401       .  A
C4175      F4180   1.357       .  S
C4176      C4177   1.405       .  A
C4176      H4181   1.083       .  S
C4177      C4178   1.410       .  A
C4178      F4182   1.358       .  S
C4179      C4184   1.412       .  A
C4179      C4188   1.405       .  A
C4184      C4185   1.402       .  A
C4184      F4189   1.357       .  S
C4185      C4186   1.400       .  A
C4185      H4190   1.083       .  S
C4186      C4187   1.406       .  A
C4187      C4188   1.398       .  A
C4187      F4191   1.358       .  S
C4188      H4192   1.083       .  S
C4193      C4194   1.400       .  A
C4193      C4198   1.395       .  A
C4193      H4203   1.083       .  S
C4194      C4199   1.482       .  S
C4194      C4195   1.405       .  A
C4195      C4196   1.400       .  A
C4195      F4200   1.358       .  S
C4196      C4197   1.410       .  A
C4196      H4201   1.077       .  S
C4197      C4198   1.414       .  A
C4198      F4202   1.358       .  S
C4199      C4204   1.406       .  A
C4199      C4208   1.404       .  A
C4204      C4205   1.397       .  A
C4204      F4209   1.358       .  S
C4205      C4206   1.407       .  A
C4205      H4210   1.083       .  S
C4206      C4207   1.410       .  A
C4207      C4208   1.399       .  A
C4207      F4211   1.357       .  S
C4208      H4212   1.083       .  S
C4213      C4214   1.406       .  A
C4213      C4218   1.400       .  A
C4213      H4223   1.083       .  S
C4214      C4219   1.492       .  S
C4214      C4215   1.411       .  A
C4215      C4216   1.398       .  A
C4215      F4220   1.357       .  S
C4216      C4217   1.402       .  A
C4216      H4221   1.083       .  S
C4217      C4218   1.408       .  A
C4218      F4222   1.358       .  S
C4219      C4224   1.407       .  A
C4219      C4228   1.403       .  A
C4224      C4225   1.400       .  A
C4224      F4229   1.358       .  S
C4225      C4226   1.413       .  A
C4225      H4230   1.080       .  S
C4226      C4227   1.414       .  A
C4227      C4228   1.397       .  A
C4227      F4231   1.357       .  S
C4228      H4232   1.083       .  S
C4233      C4234   1.408       .  A
C4233      C4238   1.402       .  A
C4233      H4243   1.083       .  S
C4234      C4239   1.495       .  S
C4234      C4235   1.410       .  A
C4235      C4236   1.400       .  A
C4235      F4240   1.357       .  S
C4236      C4237   1.405       .  A
C4236      H4241   1.083       .  S
C4237      C4238   1.406       .  A
C4238      F4242   1.357       .  S
C4239      C4244   1.410       .  A
C4239      C4248   1.405       .  A
C4244      C4245   1.403       .  A
C4244      F4249   1.357       .  S
C4245      C4246   1.407       .  A
C4245      H4250   1.083       .  S
C4246      C4247   1.412       .  A
C4247      C4248   1.400       .  A
C4247      F4251   1.358       .  S
C4248      H4252   1.083       .  S
C4253      C4254   1.405       .  A
C4253      C4258   1.402       .  A
C4253      H4263   1.083       .  S
C4254      C4259   1.483       .  S
C4254      C4255   1.404       .  A
C4255      C4256   1.397       .  A
C4255      F4260   1.358       .  S
C4256      C4257   1.409       .  A
C4256      H4261   1.083       .  S
C4257      C4258   1.409       .  A
C4258      F4262   1.357       .  S
C4259      C4264   1.407       .  A
C4259      C4268   1.402       .  A
C4264      C4265   1.400       .  A
C4264      F4269   1.357       .  S
C4265      C4266   1.404       .  A
C4265      H4270   1.082       .  S
C4266      C4267   1.412       .  A
C4267      C4268   1.399       .  A
C4267      F4271   1.357       .  S
C4268      H4272   1.083       .  S
C4273      C4274   1.408       .  A
C4273      C4278   1.402       .  A
C4273      H4283   1.083       .  S
C4274      C4279   1.487       .  S
C4274      C4275   1.405       .  A
C4275      C4276   1.396       .  A
C4275      F4280   1.357       .  S
C4276      C4277   1.407       .  A
C4276      H4281   1.083       .  S
C4277      C4278   1.407       .  A
C4278      F4282   1.357       .  S
C4279      C4284   1.405       .  A
C4279      C4288   1.407       .  A
C4284      C4285   1.396       .  A
C4284      F4289   1.358       .  S
C4285      C4286   1.408       .  A
C4285      H4290   1.083       .  S
C4286      C4287   1.408       .  A
C4287      C4288   1.403       .  A
C4287      F4291   1.357       .  S
C4288      H4292   1.083       .  S
C4293      C4294   1.401       .  A
C4293      C4298   1.392       .  A
C4293      H4303   1.084       .  S
C4294      C4299   1.483       .  S
C4294      C4295   1.408       .  A
C4295      C4296   1.402       .  A
C4295      F4300   1.357       .  S
C4296      C4297   1.407       .  A
C4296      H4301   1.083       .  S
C4297      C4298   1.413       .  A
C4298      F4302   1.358       .  S
C4299      C4304   1.408       .  A
C4299      C4308   1.403       .  A
C4304      C4305   1.403       .  A
C4304      F4309   1.357       .  S
C4305      C4306   1.405       .  A
C4305      H4310   1.083       .  S
C4306      C4307   1.407       .  A
C4307      C4308   1.390       .  A
C4307      F4311   1.358       .  S
C4308      H4312   1.083       .  S
C4313      C4314   1.403       .  A
C4313      C4318   1.399       .  A
C4313      H4323   1.083       .  S
C4314      C4319   1.488       .  S
C4314      C4315   1.404       .  A
C4315      C4316   1.396       .  A
C4315      F4320   1.358       .  S
C4316      C4317   1.413       .  A
C4316      H4321   1.082       .  S
C4317      C4318   1.416       .  A
C4318      F4322   1.354       .  S
C4319      C4324   1.408       .  A
C4319      C4328   1.404       .  A
C4324      C4325   1.397       .  A
C4324      F4329   1.357       .  S
C4325      C4326   1.406       .  A
C4325      H4330   1.083       .  S
C4326      C4327   1.412       .  A
C4327      C4328   1.399       .  A
C4327      F4331   1.357       .  S
C4328      H4332   1.083       .  S
C4333      C4334   1.405       .  A
C4333      C4338   1.397       .  A
C4333      H4343   1.083       .  S
C4334      C4339   1.483       .  S
C4334      C4335   1.406       .  A
C4335      C4336   1.399       .  A
C4335      F4340   1.358       .  S
C4336      C4337   1.407       .  A
C4336      H4341   1.083       .  S
C4337      C4338   1.408       .  A
C4338      F4342   1.357       .  S
C4339      C4344   1.402       .  A
C4339      C4348   1.404       .  A
C4344      C4345   1.392       .  A
C4344      F4349   1.358       .  S
C4345      C4346   1.411       .  A
C4345      H4350   1.083       .  S
C4346      C4347   1.415       .  A
C4347      C4348   1.403       .  A
C4347      F4351   1.354       .  S
C4348      H4352   1.083       .  S
C4353      C4354   1.406       .  A
C4353      C4358   1.400       .  A
C4353      H4363   1.083       .  S
C4354      C4359   1.487       .  S
C4354      C4355   1.406       .  A
C4355      C4356   1.398       .  A
C4355      F4360   1.358       .  S
C4356      C4357   1.408       .  A
C4356      H4361   1.083       .  S
C4357      C4358   1.408       .  A
C4358      F4362   1.357       .  S
C4359      C4364   1.405       .  A
C4359      C4368   1.405       .  A
C4364      C4365   1.398       .  A
C4364      F4369   1.357       .  S
C4365      C4366   1.408       .  A
C4365      H4370   1.082       .  S
C4366      C4367   1.410       .  A
C4367      C4368   1.399       .  A
C4367      F4371   1.355       .  S
C4368      H4372   1.083       .  S
C4373      C4374   1.404       .  A
C4373      C4378   1.400       .  A
C4373      H4383   1.083       .  S
C4374      C4379   1.486       .  S
C4374      C4375   1.406       .  A
C4375      C4376   1.400       .  A
C4375      F4380   1.357       .  S
C4376      C4377   1.408       .  A
C4376      H4381   1.083       .  S
C4377      C4378   1.411       .  A
C4378      F4382   1.357       .  S
C4379      C4384   1.407       .  A
C4379      C4388   1.402       .  A
C4384      C4385   1.402       .  A
C4384      F4389   1.357       .  S
C4385      C4386   1.406       .  A
C4385      H4390   1.080       .  S
C4386      C4387   1.411       .  A
C4387      C4388   1.397       .  A
C4387      F4391   1.357       .  S
C4388      H4392   1.083       .  S
C4393      C4394   1.406       .  A
C4393      C4398   1.401       .  A
C4393      H4403   1.083       .  S
C4394      C4399   1.479       .  S
C4394      C4395   1.406       .  A
C4395      C4396   1.393       .  A
C4395      F4400   1.358       .  S
C4396      C4397   1.402       .  A
C4396      H4401   1.084       .  S
C4397      C4398   1.404       .  A
C4398      F4402   1.357       .  S
C4399      C4404   1.406       .  A
C4399      C4408   1.401       .  A
C4404      C4405   1.400       .  A
C4404      F4409   1.357       .  S
C4405      C4406   1.406       .  A
C4405      H4410   1.083       .  S
C4406      C4407   1.412       .  A
C4407      C4408   1.394       .  A
C4407      F4411   1.358       .  S
C4408      H4412   1.083       .  S
C4413      C4414   1.403       .  A
C4413      C4418   1.395       .  A
C4413      H4423   1.083       .  S
C4414      C4419   1.482       .  S
C4414      C4415   1.409       .  A
C4415      C4416   1.397       .  A
C4415      F4420   1.357       .  S
C4416      C4417   1.402       .  A
C4416      H4421   1.083       .  S
C4417      C4418   1.407       .  A
C4418      F4422   1.358       .  S
C4419      C4424   1.410       .  A
C4419      C4428   1.403       .  A
C4424      C4425   1.398       .  A
C4424      F4429   1.357       .  S
C4425      C4426   1.400       .  A
C4425      H4430   1.083       .  S
C4426      C4427   1.407       .  A
C4427      C4428   1.394       .  A
C4427      F4431   1.358       .  S
C4428      H4432   1.083       .  S
C4433      C4434   1.404       .  A
C4433      C4438   1.399       .  A
C4433      H4443   1.083       .  S
C4434      C4439   1.488       .  S
C4434      C4435   1.410       .  A
C4435      C4436   1.399       .  A
C4435      F4440   1.357       .  S
C4436      C4437   1.404       .  A
C4436      H4441   1.083       .  S
C4437      C4438   1.411       .  A
C4438      F4442   1.358       .  S
C4439      C4444   1.406       .  A
C4439      C4448   1.402       .  A
C4444      C4445   1.400       .  A
C4444      F4449   1.358       .  S
C4445      C4446   1.412       .  A
C4445      H4450   1.079       .  S
C4446      C4447   1.415       .  A
C4447      C4448   1.397       .  A
C4447      F4451   1.357       .  S
C4448      H4452   1.083       .  S
C4453      C4454   1.404       .  A
C4453      C4458   1.396       .  A
C4453      H4463   1.083       .  S
C4454      C4459   1.483       .  S
C4454      C4455   1.407       .  A
C4455      C4456   1.398       .  A
C4455      F4460   1.357       .  S
C4456      C4457   1.405       .  A
C4456      H4461   1.083       .  S
C4457      C4458   1.409       .  A
C4458      F4462   1.358       .  S
C4459      C4464   1.405       .  A
C4459      C4468   1.401       .  A
C4464      C4465   1.398       .  A
C4464      F4469   1.358       .  S
C4465      C4466   1.411       .  A
C4465      H4470   1.076       .  S
C4466      C4467   1.413       .  A
C4467      C4468   1.395       .  A
C4467      F4471   1.358       .  S
C4468      H4472   1.083       .  S
C4473      C4474   1.407       .  A
C4473      C4478   1.404       .  A
C4473      H4483   1.083       .  S
C4474      C4479   1.491       .  S
C4474      C4475   1.407       .  A
C4475      C4476   1.400       .  A
C4475      F4480   1.357       .  S
C4476      C4477   1.405       .  A
C4476      H4481   1.083       .  S
C4477      C4478   1.406       .  A
C4478      F4482   1.356       .  S
C4479      C4484   1.406       .  A
C4479      C4488   1.406       .  A
C4484      C4485   1.399       .  A
C4484      F4489   1.357       .  S
C4485      C4486   1.408       .  A
C4485      H4490   1.083       .  S
C4486      C4487   1.413       .  A
C4487      C4488   1.405       .  A
C4487      F4491   1.357       .  S
C4488      H4492   1.083       .  S
C4493      C4494   1.400       .  A
C4493      C4498   1.397       .  A
C4493      H4503   1.084       .  S
C4494      C4499   1.482       .  S
C4494      C4495   1.406       .  A
C4495      C4496   1.405       .  A
C4495      F4500   1.357       .  S
C4496      C4497   1.409       .  A
C4496      H4501   1.083       .  S
C4497      C4498   1.414       .  A
C4498      F4502   1.357       .  S
C4499      C4504   1.405       .  A
C4499      C4508   1.404       .  A
C4504      C4505   1.399       .  A
C4504      F4509   1.358       .  S
C4505      C4506   1.402       .  A
C4505      H4510   1.080       .  S
C4506      C4507   1.408       .  A
C4507      C4508   1.402       .  A
C4507      F4511   1.357       .  S
C4508      H4512   1.083       .  S
C4513      C4514   1.404       .  A
C4513      C4518   1.398       .  A
C4513      H4523   1.083       .  S
C4514      C4519   1.489       .  S
C4514      C4515   1.412       .  A
C4515      C4516   1.403       .  A
C4515      F4520   1.357       .  S
C4516      C4517   1.401       .  A
C4516      H4521   1.083       .  S
C4517      C4518   1.406       .  A
C4518      F4522   1.358       .  S
C4519      C4524   1.410       .  A
C4519      C4528   1.403       .  A
C4524      C4525   1.403       .  A
C4524      F4529   1.357       .  S
C4525      C4526   1.405       .  A
C4525      H4530   1.083       .  S
C4526      C4527   1.410       .  A
C4527      C4528   1.398       .  A
C4527      F4531   1.358       .  S
C4528      H4532   1.083       .  S
C4533      C4534   1.405       .  A
C4533      C4538   1.395       .  A
C4533      H4543   1.083       .  S
C4534      C4539   1.485       .  S
C4534      C4535   1.408       .  A
C4535      C4536   1.402       .  A
C4535      F4540   1.357       .  S
C4536      C4537   1.403       .  A
C4536      H4541   1.083       .  S
C4537      C4538   1.405       .  A
C4538      F4542   1.358       .  S
C4539      C4544   1.403       .  A
C4539      C4548   1.407       .  A
C4544      C4545   1.395       .  A
C4544      F4549   1.358       .  S
C4545      C4546   1.410       .  A
C4545      H4550   1.083       .  S
C4546      C4547   1.408       .  A
C4547      C4548   1.404       .  A
C4547      F4551   1.357       .  S
C4548      H4552   1.083       .  S
C4553      C4554   1.402       .  A
C4553      C4558   1.399       .  A
C4553      H4563   1.083       .  S
C4554      C4559   1.479       .  S
C4554      C4555   1.405       .  A
C4555      C4556   1.396       .  A
C4555      F4560   1.358       .  S
C4556      C4557   1.408       .  A
C4556      H4561   1.083       .  S
C4557      C4558   1.411       .  A
C4558      F4562   1.357       .  S
C4559      C4564   1.404       .  A
C4559      C4568   1.399       .  A
C4564      C4565   1.398       .  A
C4564      F4569   1.358       .  S
C4565      C4566   1.410       .  A
C4565      H4570   1.077       .  S
C4566      C4567   1.416       .  A
C4567      C4568   1.396       .  A
C4567      F4571   1.358       .  S
C4568      H4572   1.083       .  S
C4573      C4574   1.403       .  A
C4573      C4578   1.399       .  A
C4573      H4583   1.083       .  S
C4574      C4579   1.495       .  S
C4574      C4575   1.409       .  A
C4575      C4576   1.400       .  A
C4575      F4580   1.357       .  S
C4576      C4577   1.410       .  A
C4576      H4581   1.081       .  S
C4577      C4578   1.417       .  A
C4578      F4582   1.356       .  S
C4579      C4584   1.413       .  A
C4579      C4588   1.405       .  A
C4584      C4585   1.402       .  A
C4584      F4589   1.357       .  S
C4585      C4586   1.405       .  A
C4585      H4590   1.083       .  S
C4586      C4587   1.409       .  A
C4587      C4588   1.399       .  A
C4587      F4591   1.357       .  S
C4588      H4592   1.083       .  S
C4593      C4594   1.402       .  A
C4593      C4598   1.399       .  A
C4593      H4603   1.083       .  S
C4594      C4599   1.485       .  S
C4594      C4595   1.406       .  A
C4595      C4596   1.401       .  A
C4595      F4600   1.357       .  S
C4596      C4597   1.408       .  A
C4596      H4601   1.083       .  S
C4597      C4598   1.413       .  A
C4598      F4602   1.358       .  S
C4599      C4604   1.405       .  A
C4599      C4608   1.406       .  A
C4604      C4605   1.398       .  A
C4604      F4609   1.358       .  S
C4605      C4606   1.407       .  A
C4605      H4610   1.083       .  S
C4606      C4607   1.407       .  A
C4607      C4608   1.401       .  A
C4607      F4611   1.357       .  S
C4608      H4612   1.083       .  S
C4613      C4614   1.407       .  A
C4613      C4618   1.404       .  A
C4613      H4623   1.083       .  S
C4614      C4619   1.497       .  S
C4614      C4615   1.407       .  A
C4615      C4616   1.402       .  A
C4615      F4620   1.357       .  S
C4616      C4617   1.410       .  A
C4616      H4621   1.082       .  S
C4617      C4618   1.411       .  A
C4618      F4622   1.356       .  S
C4619      C4624   1.406       .  A
C4619      C4628   1.409       .  A
C4624      C4625   1.400       .  A
C4624      F4629   1.357       .  S
C4625      C4626   1.410       .  A
C4625      H4630   1.083       .  S
C4626      C4627   1.411       .  A
C4627      C4628   1.406       .  A
C4627      F4631   1.357       .  S
C4628      H4632   1.083       .  S
C4633      C4634   1.400       .  A
C4633      C4638   1.398       .  A
C4633      H4643   1.083       .  S
C4634      C4639   1.475       .  S
C4634      C4635   1.404       .  A
C4635      C4636   1.399       .  A
C4635      F4640   1.357       .  S
C4636      C4637   1.405       .  A
C4636      H4641   1.083       .  S
C4637      C4638   1.413       .  A
C4638      F4642   1.358       .  S
C4639      C4644   1.404       .  A
C4639      C4648   1.401       .  A
C4644      C4645   1.401       .  A
C4644      F4649   1.357       .  S
C4645      C4646   1.406       .  A
C4645      H4650   1.083       .  S
C4646      C4647   1.407       .  A
C4647      C4648   1.395       .  A
C4647      F4651   1.357       .  S
C4648      H4652   1.084       .  S
C4653      C4654   1.403       .  A
C4653      C4658   1.397       .  A
C4653      H4663   1.083       .  S
C4654      C4659   1.480       .  S
C4654      C4655   1.409       .  A
C4655      C4656   1.396       .  A
C4655      F4660   1.358       .  S
C4656      C4657   1.398       .  A
C4656      H4661   1.082       .  S
C4657      C4658   1.405       .  A
C4658      F4662   1.358       .  S
C4659      C4664   1.407       .  A
C4659      C4668   1.403       .  A
C4664      C4665   1.399       .  A
C4664      F4669   1.357       .  S
C4665      C4666   1.406       .  A
C4665      H4670   1.083       .  S
C4666      C4667   1.407       .  A
C4667      C4668   1.393       .  A
C4667      F4671   1.358       .  S
C4668      H4672   1.083       .  S
C4673      C4674   1.403       .  A
C4673      C4678   1.397       .  A
C4673      H4683   1.083       .  S
C4674      C4679   1.486       .  S
C4674      C4675   1.407       .  A
C4675      C4676   1.402       .  A
C4675      F4680   1.357       .  S
C4676      C4677   1.408       .  A
C4676      H4681   1.083       .  S
C4677      C4678   1.411       .  A
C4678      F4682   1.357       .  S
C4679      C4684   1.403       .  A
C4679      C4688   1.403       .  A
C4684      C4685   1.397       .  A
C4684      F4689   1.357       .  S
C4685      C4686   1.413       .  A
C4685      H4690   1.082       .  S
C4686      C4687   1.416       .  A
C4687      C4688   1.399       .  A
C4687      F4691   1.354       .  S
C4688      H4692   1.083       .  S
C4693      C4694   1.406       .  A
C4693      C4698   1.397       .  A
C4693      H4703   1.083       .  S
C4694      C4699   1.489       .  S
C4694      C4695   1.411       .  A
C4695      C4696   1.397       .  A
C4695      F4700   1.357       .  S
C4696      C4697   1.402       .  A
C4696      H4701   1.083       .  S
C4697      C4698   1.408       .  A
C4698      F4702   1.358       .  S
C4699      C4704   1.408       .  A
C4699      C4708   1.403       .  A
C4704      C4705   1.398       .  A
C4704      F4709   1.358       .  S
C4705      C4706   1.411       .  A
C4705      H4710   1.077       .  S
C4706      C4707   1.412       .  A
C4707      C4708   1.395       .  A
C4707      F4711   1.358       .  S
C4708      H4712   1.083       .  S
C4713      C4714   1.410       .  A
C4713      C4718   1.408       .  A
C4713      H4723   1.083       .  S
C4714      C4719   1.502       .  S
C4714      C4715   1.408       .  A
C4715      C4716   1.401       .  A
C4715      F4720   1.357       .  S
C4716      C4717   1.409       .  A
C4716      H4721   1.083       .  S
C4717      C4718   1.412       .  A
C4718      F4722   1.357       .  S
C4719      C4724   1.413       .  A
C4719      C4728   1.406       .  A
C4724      C4725   1.406       .  A
C4724      F4729   1.357       .  S
C4725      C4726   1.403       .  A
C4725      H4730   1.080       .  S
C4726      C4727   1.410       .  A
C4727      C4728   1.403       .  A
C4727      F4731   1.357       .  S
C4728      H4732   1.083       .  S
C4733      C4734   1.406       .  A
C4733      C4738   1.399       .  A
C4733      H4743   1.083       .  S
C4734      C4739   1.488       .  S
C4734      C4735   1.410       .  A
C4735      C4736   1.398       .  A
C4735      F4740   1.357       .  S
C4736      C4737   1.401       .  A
C4736      H4741   1.084       .  S
C4737      C4738   1.406       .  A
C4738      F4742   1.357       .  S
C4739      C4744   1.405       .  A
C4739      C4748   1.407       .  A
C4744      C4745   1.395       .  A
C4744      F4749   1.358       .  S
C4745      C4746   1.409       .  A
C4745      H4750   1.083       .  S
C4746      C4747   1.409       .  A
C4747      C4748   1.403       .  A
C4747      F4751   1.357       .  S
C4748      H4752   1.083       .  S
C4753      C4754   1.409       .  A
C4753      C4758   1.404       .  A
C4753      H4763   1.083       .  S
C4754      C4759   1.488       .  S
C4754      C4755   1.406       .  A
C4755      C4756   1.396       .  A
C4755      F4760   1.358       .  S
C4756      C4757   1.404       .  A
C4756      H4761   1.084       .  S
C4757      C4758   1.405       .  A
C4758      F4762   1.357       .  S
C4759      C4764   1.411       .  A
C4759      C4768   1.406       .  A
C4764      C4765   1.397       .  A
C4764      F4769   1.357       .  S
C4765      C4766   1.398       .  A
C4765      H4770   1.083       .  S
C4766      C4767   1.406       .  A
C4767      C4768   1.402       .  A
C4767      F4771   1.357       .  S
C4768      H4772   1.083       .  S
C4773      C4774   1.396       .  A
C4773      C4778   1.395       .  A
C4773      H4783   1.084       .  S
C4774      C4779   1.469       .  S
C4774      C4775   1.403       .  A
C4775      C4776   1.398       .  A
C4775      F4780   1.358       .  S
C4776      C4777   1.406       .  A
C4776      H4781   1.083       .  S
C4777      C4778   1.415       .  A
C4778      F4782   1.358       .  S
C4779      C4784   1.403       .  A
C4779      C4788   1.403       .  A
C4784      C4785   1.395       .  A
C4784      F4789   1.357       .  S
C4785      C4786   1.400       .  A
C4785      H4790   1.083       .  S
C4786      C4787   1.403       .  A
C4787      C4788   1.397       .  A
C4787      F4791   1.358       .  S
C4788      H4792   1.083       .  S
C4793      C4794   1.404       .  A
C4793      C4798   1.400       .  A
C4793      H4803   1.083       .  S
C4794      C4799   1.488       .  S
C4794      C4795   1.407       .  A
C4795      C4796   1.402       .  A
C4795      F4800   1.358       .  S
C4796      C4797   1.409       .  A
C4796      H4801   1.083       .  S
C4797      C4798   1.411       .  A
C4798      F4802   1.357       .  S
C4799      C4804   1.407       .  A
C4799      C4808   1.401       .  A
C4804      C4805   1.403       .  A
C4804      F4809   1.358       .  S
C4805      C4806   1.411       .  A
C4805      H4810   1.077       .  S
C4806      C4807   1.415       .  A
C4807      C4808   1.397       .  A
C4807      F4811   1.358       .  S
C4808      H4812   1.083       .  S
C4813      C4814   1.404       .  A
C4813      C4818   1.394       .  A
C4813      H4823   1.083       .  S
C4814      C4819   1.488       .  S
C4814      C4815   1.411       .  A
C4815      C4816   1.402       .  A
C4815      F4820   1.357       .  S
C4816      C4817   1.404       .  A
C4816      H4821   1.083       .  S
C4817      C4818   1.407       .  A
C4818      F4822   1.358       .  S
C4819      C4824   1.406       .  A
C4819      C4828   1.404       .  A
C4824      C4825   1.393       .  A
C4824      F4829   1.358       .  S
C4825      C4826   1.410       .  A
C4825      H4830   1.084       .  S
C4826      C4827   1.416       .  A
C4827      C4828   1.402       .  A
C4827      F4831   1.353       .  S
C4828      H4832   1.083       .  S
C4833      C4834   1.403       .  A
C4833      C4838   1.398       .  A
C4833      H4843   1.083       .  S
C4834      C4839   1.489       .  S
C4834      C4835   1.408       .  A
C4835      C4836   1.402       .  A
C4835      F4840   1.357       .  S
C4836      C4837   1.408       .  A
C4836      H4841   1.083       .  S
C4837      C4838   1.412       .  A
C4838      F4842   1.357       .  S
C4839      C4844   1.408       .  A
C4839      C4848   1.406       .  A
C4844      C4845   1.399       .  A
C4844      F4849   1.358       .  S
C4845      C4846   1.406       .  A
C4845      H4850   1.083       .  S
C4846      C4847   1.407       .  A
C4847      C4848   1.402       .  A
C4847      F4851   1.357       .  S
C4848      H4852   1.083       .  S
C4853      C4854   1.402       .  A
C4853      C4858   1.397       .  A
C4853      H4863   1.083       .  S
C4854      C4859   1.489       .  S
C4854      C4855   1.409       .  A
C4855      C4856   1.402       .  A
C4855      F4860   1.358       .  S
C4856      C4857   1.408       .  A
C4856      H4861   1.083       .  S
C4857      C4858   1.413       .  A
C4858      F4862   1.357       .  S
C4859      C4864   1.410       .  A
C4859      C4868   1.405       .  A
C4864      C4865   1.400       .  A
C4864      F4869   1.357       .  S
C4865      C4866   1.403       .  A
C4865      H4870   1.083       .  S
C4866      C4867   1.408       .  A
C4867      C4868   1.399       .  A
C4867      F4871   1.357       .  S
C4868      H4872   1.083       .  S
C4873      C4874   1.401       .  A
C4873      C4878   1.394       .  A
C4873      H4883   1.083       .  S
C4874      C4879   1.488       .  S
C4874      C4875   1.410       .  A
C4875      C4876   1.405       .  A
C4875      F4880   1.357       .  S
C4876      C4877   1.408       .  A
C4876      H4881   1.083       .  S
C4877      C4878   1.412       .  A
C4878      F4882   1.358       .  S
C4879      C4884   1.411       .  A
C4879      C4888   1.403       .  A
C4884      C4885   1.401       .  A
C4884      F4889   1.357       .  S
C4885      C4886   1.400       .  A
C4885      H4890   1.082       .  S
C4886      C4887   1.410       .  A
C4887      C4888   1.398       .  A
C4887      F4891   1.358       .  S
C4888      H4892   1.083       .  S
C4893      C4894   1.404       .  A
C4893      C4898   1.396       .  A
C4893      H4903   1.083       .  S
C4894      C4899   1.494       .  S
C4894      C4895   1.414       .  A
C4895      C4896   1.405       .  A
C4895      F4900   1.357       .  S
C4896      C4897   1.404       .  A
C4896      H4901   1.083       .  S
C4897      C4898   1.409       .  A
C4898      F4902   1.358       .  S
C4899      C4904   1.413       .  A
C4899      C4908   1.402       .  A
C4904      C4905   1.404       .  A
C4904      F4909   1.357       .  S
C4905      C4906   1.404       .  A
C4905      H4910   1.082       .  S
C4906      C4907   1.413       .  A
C4907      C4908   1.395       .  A
C4907      F4911   1.357       .  S
C4908      H4912   1.083       .  S
C4913      C4914   1.404       .  A
C4913      C4918   1.395       .  A
C4913      H4923   1.083       .  S
C4914      C4919   1.485       .  S
C4914      C4915   1.408       .  A
C4915      C4916   1.400       .  A
C4915      F4920   1.357       .  S
C4916      C4917   1.406       .  A
C4916      H4921   1.083       .  S
C4917      C4918   1.408       .  A
C4918      F4922   1.358       .  S
C4919      C4924   1.404       .  A
C4919      C4928   1.403       .  A
C4924      C4925   1.399       .  A
C4924      F4929   1.358       .  S
C4925      C4926   1.413       .  A
C4925      H4930   1.078       .  S
C4926      C4927   1.413       .  A
C4927      C4928   1.396       .  A
C4927      F4931   1.357       .  S
C4928      H4932   1.083       .  S
C4933      C4934   1.402       .  A
C4933      C4938   1.396       .  A
C4933      H4943   1.083       .  S
C4934      C4939   1.477       .  S
C4934      C4935   1.404       .  A
C4935      C4936   1.397       .  A
C4935      F4940   1.358       .  S
C4936      C4937   1.407       .  A
C4936      H4941   1.083       .  S
C4937      C4938   1.409       .  A
C4938      F4942   1.357       .  S
C4939      C4944   1.404       .  A
C4939      C4948   1.399       .  A
C4944      C4945   1.398       .  A
C4944      F4949   1.358       .  S
C4945      C4946   1.411       .  A
C4945      H4950   1.077       .  S
C4946      C4947   1.415       .  A
C4947      C4948   1.394       .  A
C4947      F4951   1.358       .  S
C4948      H4952   1.083       .  S
C4953      C4954   1.407       .  A
C4953      C4958   1.402       .  A
C4953      H4963   1.083       .  S
C4954      C4959   1.491       .  S
C4954      C4955   1.407       .  A
C4955      C4956   1.399       .  A
C4955      F4960   1.358       .  S
C4956      C4957   1.409       .  A
C4956      H4961   1.083       .  S
C4957      C4958   1.410       .  A
C4958      F4962   1.357       .  S
C4959      C4964   1.406       .  A
C4959      C4968   1.406       .  A
C4964      C4965   1.399       .  A
C4964      F4969   1.357       .  S
C4965      C4966   1.409       .  A
C4965      H4970   1.082       .  S
C4966      C4967   1.409       .  A
C4967      C4968   1.401       .  A
C4967      F4971   1.353       .  S
C4968      H4972   1.083       .  S
C4973      C4974   1.406       .  A
C4973      C4978   1.399       .  A
C4973      H4983   1.082       .  S
C4974      C4979   1.497       .  S
C4974      C4975   1.411       .  A
C4975      C4976   1.403       .  A
C4975      F4980   1.357       .  S
C4976      C4977   1.407       .  A
C4976      H4981   1.083       .  S
C4977      C4978   1.411       .  A
C4978      F4982   1.357       .  S
C4979      C4984   1.411       .  A
C4979      C4988   1.409       .  A
C4984      C4985   1.400       .  A
C4984      F4989   1.357       .  S
C4985      C4986   1.404       .  A
C4985      H4990   1.083       .  S
C4986      C4987   1.403       .  A
C4987      C4988   1.401       .  A
C4987      F4991   1.353       .  S
C4988      H4992   1.082       .  S
C4993      C4994   1.400       .  A
C4993      C4998   1.394       .  A
C4993      H5003   1.084       .  S
C4994      C4999   1.484       .  S
C4994      C4995   1.408       .  A
C4995      C4996   1.404       .  A
C4995      F5000   1.357       .  S
C4996      C4997   1.407       .  A
C4996      H5001   1.083       .  S
C4997      C4998   1.413       .  A
C4998      F5002   1.358       .  S
C4999      C5004   1.408       .  A
C4999      C5008   1.404       .  A
C5004      C5005   1.403       .  A
C5004      F5009   1.357       .  S
C5005      C5006   1.403       .  A
C5005      H5010   1.083       .  S
C5006      C5007   1.405       .  A
C5007      C5008   1.395       .  A
C5007      F5011   1.358       .  S
C5008      H5012   1.083       .  S
C5013      C5014   1.405       .  A
C5013      C5018   1.399       .  A
C5013      H5023   1.083       .  S
C5014      C5019   1.478       .  S
C5014      C5015   1.403       .  A
C5015      C5016   1.396       .  A
C5015      F5020   1.358       .  S
C5016      C5017   1.408       .  A
C5016      H5021   1.083       .  S
C5017      C5018   1.407       .  A
C5018      F5022   1.357       .  S
C5019      C5024   1.404       .  A
C5019      C5028   1.404       .  A
C5024      C5025   1.395       .  A
C5024      F5029   1.358       .  S
C5025      C5026   1.406       .  A
C5025      H5030   1.083       .  S
C5026      C5027   1.407       .  A
C5027      C5028   1.400       .  A
C5027      F5031   1.357       .  S
C5028      H5032   1.083       .  S
C5033      C5034   1.405       .  A
C5033      C5038   1.399       .  A
C5033      H5043   1.083       .  S
C5034      C5039   1.487       .  S
C5034      C5035   1.406       .  A
C5035      C5036   1.399       .  A
C5035      F5040   1.357       .  S
C5036      C5037   1.407       .  A
C5036      H5041   1.083       .  S
C5037      C5038   1.411       .  A
C5038      F5042   1.358       .  S
C5039      C5044   1.406       .  A
C5039      C5048   1.402       .  A
C5044      C5045   1.400       .  A
C5044      F5049   1.358       .  S
C5045      C5046   1.411       .  A
C5045      H5050   1.077       .  S
C5046      C5047   1.414       .  A
C5047      C5048   1.396       .  A
C5047      F5051   1.358       .  S
C5048      H5052   1.083       .  S
C5053      C5054   1.405       .  A
C5053      C5058   1.403       .  A
C5053      H5063   1.083       .  S
C5054      C5059   1.489       .  S
C5054      C5055   1.403       .  A
C5055      C5056   1.397       .  A
C5055      F5060   1.358       .  S
C5056      C5057   1.413       .  A
C5056      H5061   1.084       .  S
C5057      C5058   1.415       .  A
C5058      F5062   1.352       .  S
C5059      C5064   1.406       .  A
C5059      C5068   1.407       .  A
C5064      C5065   1.398       .  A
C5064      F5069   1.357       .  S
C5065      C5066   1.406       .  A
C5065      H5070   1.083       .  S
C5066      C5067   1.410       .  A
C5067      C5068   1.403       .  A
C5067      F5071   1.357       .  S
C5068      H5072   1.083       .  S
C5073      C5074   1.401       .  A
C5073      C5078   1.400       .  A
C5073      H5083   1.083       .  S
C5074      C5079   1.485       .  S
C5074      C5075   1.408       .  A
C5075      C5076   1.403       .  A
C5075      F5080   1.358       .  S
C5076      C5077   1.404       .  A
C5076      H5081   1.082       .  S
C5077      C5078   1.411       .  A
C5078      F5082   1.357       .  S
C5079      C5084   1.408       .  A
C5079      C5088   1.401       .  A
C5084      C5085   1.405       .  A
C5084      F5089   1.357       .  S
C5085      C5086   1.407       .  A
C5085      H5090   1.083       .  S
C5086      C5087   1.413       .  A
C5087      C5088   1.397       .  A
C5087      F5091   1.358       .  S
C5088      H5092   1.083       .  S
C5093      C5094   1.402       .  A
C5093      C5098   1.399       .  A
C5093      H5103   1.083       .  S
C5094      C5099   1.482       .  S
C5094      C5095   1.405       .  A
C5095      C5096   1.400       .  A
C5095      F5100   1.358       .  S
C5096      C5097   1.409       .  A
C5096      H5101   1.083       .  S
C5097      C5098   1.412       .  A
C5098      F5102   1.357       .  S
C5099      C5104   1.404       .  A
C5099      C5108   1.404       .  A
C5104      C5105   1.398       .  A
C5104      F5109   1.357       .  S
C5105      C5106   1.408       .  A
C5105      H5110   1.083       .  S
C5106      C5107   1.408       .  A
C5107      C5108   1.400       .  A
C5107      F5111   1.356       .  S
C5108      H5112   1.083       .  S
C5113      C5114   1.400       .  A
C5113      C5118   1.393       .  A
C5113      H5123   1.084       .  S
C5114      C5119   1.483       .  S
C5114      C5115   1.409       .  A
C5115      C5116   1.404       .  A
C5115      F5120   1.357       .  S
C5116      C5117   1.407       .  A
C5116      H5121   1.083       .  S
C5117      C5118   1.411       .  A
C5118      F5122   1.358       .  S
C5119      C5124   1.407       .  A
C5119      C5128   1.407       .  A
C5124      C5125   1.393       .  A
C5124      F5129   1.358       .  S
C5125      C5126   1.402       .  A
C5125      H5130   1.084       .  S
C5126      C5127   1.404       .  A
C5127      C5128   1.403       .  A
C5127      F5131   1.357       .  S
C5128      H5132   1.083       .  S
C5133      C5134   1.406       .  A
C5133      C5138   1.404       .  A
C5133      H5143   1.083       .  S
C5134      C5139   1.483       .  S
C5134      C5135   1.403       .  A
C5135      C5136   1.397       .  A
C5135      F5140   1.358       .  S
C5136      C5137   1.407       .  A
C5136      H5141   1.083       .  S
C5137      C5138   1.408       .  A
C5138      F5142   1.357       .  S
C5139      C5144   1.407       .  A
C5139      C5148   1.404       .  A
C5144      C5145   1.400       .  A
C5144      F5149   1.357       .  S
C5145      C5146   1.401       .  A
C5145      H5150   1.079       .  S
C5146      C5147   1.408       .  A
C5147      C5148   1.400       .  A
C5147      F5151   1.358       .  S
C5148      H5152   1.083       .  S
