geometry optimzed in LAMMPS
_audit_creation_date              2020-11-30 
_audit_creation_method            'lammps2cif' 
_symmetry_space_group_name_H-M    'P1' 
_symmetry_Int_Tables_number       1 
_symmetry_cell_setting            triclinic 
loop_ 
_symmetry_equiv_pos_as_xyz 
  x,y,z 
_cell_length_a                    43.25799261 
_cell_length_b                    43.41230083102413 
_cell_length_c                    43.36068831695241 
_cell_angle_alpha                 89.70767833551623 
_cell_angle_beta                  90.1005805748752 
_cell_angle_gamma                 90.11791318056311 
loop_ 
_atom_site_label 
_atom_site_type_symbol 
_atom_site_fract_x 
_atom_site_fract_y 
_atom_site_fract_z 
_atom_site_charge 
O1          O  0.16925255  0.71091985  0.50435011    -0.78400
C2          C  0.20196156  0.79936245  0.52761274     0.82700
O3          O  0.22523150  0.71150944  0.42775710    -0.79500
O4          O  0.28435268  0.79016938  0.50001908    -0.81000
O5          O  0.26927730  0.68690396  0.54637721    -0.80800
O6          O  0.20004378  0.67007506  0.51003694    -0.79400
Zn7        Zn  0.19801328  0.74330935  0.48844457     1.55700
O8          O  0.29318542  0.73211084  0.54499914    -0.80800
Cd9        Cd  0.24336534  0.68897983  0.50693637     1.59700
Cd10       Cd  0.26026048  0.73382588  0.45428909     1.59600
O11         O  0.27152837  0.66456307  0.47803455    -0.80800
O12         O  0.23969704  0.73230498  0.49464526    -1.91300
Cd13       Cd  0.25897196  0.75954367  0.52446518     1.59900
O14         O  0.29700578  0.70385128  0.45739169    -0.80800
O15         O  0.22561619  0.78984099  0.54294743    -0.79400
C16         C  0.19733613  0.71956659  0.43274650     0.83100
C17         C  0.17323755  0.68229897  0.50946969     0.82800
O18         O  0.19050699  0.78387953  0.50565328    -0.78400
C19         C  0.29405900  0.70273326  0.54784501     0.83600
O20         O  0.19285204  0.74606265  0.44378901    -0.78500
C21         C  0.29574043  0.67564578  0.46551290     0.83700
C22         C  0.28922063  0.79654314  0.47184275     0.84100
O23         O  0.27885809  0.77925348  0.44998902    -0.80900
O24         O  0.80508971  0.78365855  0.02072290    -0.78400
C25         C  0.81214510  0.68194782  0.04103769     0.82700
O26         O  0.77432365  0.70800962  0.94620051    -0.79500
O27         O  0.71196327  0.67021971  0.00607908    -0.81000
O28         O  0.69875578  0.74411776  0.06051810    -0.80800
O29         O  0.76580971  0.80061423  0.04884432    -0.79400
Zn30       Zn  0.79568234  0.74092393  0.01068383     1.55700
O31         O  0.72678891  0.70301872  0.07074010    -0.80800
Cd32       Cd  0.73314799  0.76699325  0.03503177     1.59700
Cd33       Cd  0.73751468  0.73269448  0.96787455     1.59600
O34         O  0.70808347  0.79213939  0.00496077    -0.80800
O35         O  0.75288666  0.73459991  0.01048771    -1.91300
Cd36       Cd  0.74577104  0.69378658  0.02908586     1.59900
O37         O  0.71805703  0.77678753  0.95684746    -0.80800
O38         O  0.78629706  0.66990521  0.03388680    -0.79400
C39         C  0.80296625  0.71125162  0.95319936     0.83100
C40         C  0.79217798  0.80492168  0.03589311     0.82800
O41         O  0.81721207  0.71076562  0.03852024    -0.78400
C42         C  0.70053213  0.71578743  0.06844947     0.83600
O43         O  0.81158942  0.73425039  0.96884465    -0.78500
C44         C  0.70503523  0.79534077  0.97601169     0.83700
C45         C  0.69437820  0.67897664  0.98420833     0.84100
O46         O  0.70006045  0.70325016  0.96851155    -0.80900
O47         O  0.26772224  0.48502854  0.19800888    -0.78400
C48         C  0.16721255  0.45902710  0.19436541     0.82700
O49         O  0.20091231  0.56113028  0.21659598    -0.79500
O50         O  0.15688197  0.50800976  0.29039159    -0.81000
O51         O  0.22844284  0.44650004  0.30491316    -0.80800
O52         O  0.28605339  0.45909074  0.23832238    -0.79400
Zn53       Zn  0.22360475  0.48688048  0.20789229     1.55700
O54         O  0.18597969  0.43926826  0.27795105    -0.80800
Cd55       Cd  0.25110092  0.47123011  0.26984369     1.59700
Cd56       Cd  0.22094652  0.53952790  0.25656516     1.59600
O57         O  0.27678403  0.50152892  0.29336948    -0.80800
O58         O  0.21889437  0.49530452  0.24905365    -1.91300
Cd59       Cd  0.17735240  0.48038350  0.25771916     1.59900
O60         O  0.26679256  0.54785901  0.27264305    -0.80800
O61         O  0.15511772  0.47444200  0.21620579    -0.79400
C62         C  0.19569616  0.54750910  0.19084524     0.83100
C63         C  0.29029555  0.47322326  0.21256499     0.82800
O64         O  0.19606790  0.45288713  0.19408225    -0.78400
C65         C  0.19925322  0.44186209  0.30388470     0.83600
O66         O  0.20547412  0.52061211  0.18619804    -0.78500
C67         C  0.28360595  0.52966384  0.28921043     0.83700
C68         C  0.16738444  0.53213196  0.30346339     0.84100
O69         O  0.19155337  0.54599028  0.29354519    -0.80900
O70         O  0.48831260  0.20332120  0.26729721    -0.78400
C71         C  0.44691421  0.19353122  0.17293005     0.82700
O72         O  0.55249421  0.23773703  0.19351881    -0.79500
O73         O  0.48799511  0.29161870  0.15002508    -0.81000
O74         O  0.42866335  0.30395739  0.23006455    -0.80800
O75         O  0.45430165  0.23707379  0.28577192    -0.79400
Zn76       Zn  0.48469933  0.21236775  0.22276313     1.55700
O77         O  0.42307009  0.27937945  0.18642541    -0.80800
Cd78       Cd  0.45818266  0.27109545  0.25059885     1.59700
Cd79       Cd  0.52489553  0.27179196  0.21571406     1.59600
O80         O  0.48540268  0.29980848  0.27417081    -0.80800
O81         O  0.48315385  0.25458922  0.21698774    -1.91300
Cd82       Cd  0.46409323  0.25985649  0.17639152     1.59900
O83         O  0.53412982  0.29198816  0.25947344    -0.80800
O84         O  0.45608681  0.21724751  0.15804113    -0.79400
C85         C  0.54370967  0.21026049  0.18692409     0.83100
C86         C  0.47328360  0.21454433  0.28980002     0.82800
O87         O  0.44975308  0.19102040  0.20206022    -0.78400
C88         C  0.42553197  0.30462497  0.20072359     0.83600
O89         O  0.51958992  0.19838864  0.19850835    -0.78500
C90         C  0.51411608  0.30423326  0.27763622     0.83700
C91         C  0.50796389  0.31114969  0.15938447     0.84100
O92         O  0.52214455  0.30793192  0.18500398    -0.80900
O93         O  0.19939591  0.28572806  0.49146885    -0.78400
C94         C  0.17508658  0.18513332  0.47894457     0.82700
O95         O  0.22746943  0.20636658  0.56365977    -0.79500
O96         O  0.27158446  0.16045860  0.51741387    -0.81000
O97         O  0.29496478  0.22645486  0.44373454    -0.80800
O98         O  0.23761916  0.29569083  0.45860257    -0.79400
Zn99       Zn  0.20347510  0.24302439  0.50368995     1.55700
O100        O  0.27040095  0.18113763  0.44817408    -0.80800
Cd101      Cd  0.26646332  0.25677644  0.46963543     1.59700
Cd102      Cd  0.26393902  0.22927215  0.53907589     1.59600
O103        O  0.29778233  0.28055904  0.49500869    -0.80800
O104        O  0.24451232  0.22987726  0.49815695    -1.91300
Cd105      Cd  0.24486434  0.18619102  0.48725726     1.59900
O106        O  0.28336772  0.27425185  0.54413445    -0.80800
O107        O  0.20023568  0.17011326  0.48213846    -0.79400
C108        C  0.20022969  0.21632366  0.55843810     0.83100
C109        C  0.21394984  0.30444461  0.47437597     0.82800
O110        O  0.17337782  0.21403284  0.48374863    -0.78400
C111        C  0.29407125  0.19696526  0.44072254     0.83600
O112        O  0.19777752  0.24339128  0.54819509    -0.78500
C113        C  0.29840707  0.28903359  0.52301533     0.83700
C114        C  0.29655606  0.17030440  0.52958492     0.84100
O115        O  0.29990915  0.19863156  0.53623970    -0.80900
O116        O  0.69558739  0.53270933  0.17530652    -0.78400
C117        C  0.79151198  0.53980603  0.20319134     0.82700
O118        O  0.69577337  0.44909590  0.22797027    -0.79500
O119        O  0.77667193  0.51765007  0.29090290    -0.81000
O120        O  0.68618600  0.57515230  0.26666684    -0.80800
O121        O  0.65625621  0.53371922  0.20834868    -0.79400
Zn122      Zn  0.72813694  0.51134900  0.20077442     1.55700
O123        O  0.73057840  0.57390716  0.29114118    -0.80800
Cd124      Cd  0.67909308  0.53229837  0.24967384     1.59700
Cd125      Cd  0.72018293  0.47438469  0.26291586     1.59600
O126        O  0.65569424  0.50931358  0.28386539    -0.80800
O127        O  0.72071625  0.51570847  0.24371488    -1.91300
Cd128      Cd  0.75221219  0.54346663  0.26106457     1.59900
O129        O  0.69049294  0.47525435  0.29997442    -0.80800
O130        O  0.78620964  0.55423315  0.22836592    -0.79400
C131        C  0.70052212  0.45400484  0.19921412     0.83100
C132        C  0.66693811  0.53633373  0.18105891     0.82800
O133        O  0.77092225  0.52313628  0.19067908    -0.78400
C134        C  0.70118776  0.57592750  0.29184468     0.83600
O135        O  0.72530251  0.46725554  0.19124691    -0.78500
C136        C  0.66484021  0.48917547  0.30324226     0.83700
C137        C  0.78107299  0.48933161  0.29663930     0.84100
O138        O  0.76441253  0.46809836  0.28404788    -0.80900
O139        O  0.05931068  0.31894583  0.30339179    -0.78400
C140        C  0.03516222  0.30476322  0.20817889     0.82700
O141        O  0.94870375  0.29814067  0.29438989    -0.79500
O142        O  0.00777495  0.21965183  0.22302056    -0.81000
O143        O  0.07089246  0.23588911  0.30972471    -0.80800
O144        O  0.03737325  0.29568098  0.34365338    -0.79400
Zn145      Zn  0.02447566  0.30658751  0.27580807     1.55700
O146        O  0.06467162  0.21016869  0.26684188    -0.80800
Cd147      Cd  0.02977753  0.25508694  0.32008828     1.59700
Cd148      Cd  0.96999046  0.25757223  0.27643999     1.59600
O149        O  0.00157414  0.22165715  0.33983170    -0.80800
O150        O  0.01468027  0.26516559  0.27883000    -1.91300
Cd151      Cd  0.03837124  0.24537927  0.24586023     1.59900
O152        O  0.96204438  0.22215431  0.30689069    -0.80800
O153        O  0.04721919  0.27777291  0.21013681    -0.79400
C154        C  0.96269365  0.32343628  0.30097005     0.83100
C155        C  0.05360604  0.31751627  0.33222604     0.82800
O156        O  0.02613086  0.31874778  0.23216537    -0.78400
C157        C  0.06867256  0.21028772  0.29605734     0.83600
O158        O  0.99061217  0.32818496  0.29397675    -0.78500
C159        C  0.97609699  0.21048158  0.32997691     0.83700
C160        C  0.97899314  0.21975667  0.21763359     0.84100
O161        O  0.96009905  0.23662918  0.23304640    -0.80900
O162        O  0.73161540  0.99460531  0.30759328    -0.78400
C163        C  0.83691071  0.99396115  0.31646607     0.82700
O164        O  0.80374814  0.07190356  0.26836783    -0.79500
O165        O  0.84445601  0.01465310  0.21147218    -0.81000
O166        O  0.77568510  0.94776368  0.20569587    -0.80800
O167        O  0.71729400  0.96242187  0.27035176    -0.79400
Zn168      Zn  0.77264655  0.01040373  0.29643403     1.55700
O169        O  0.81878954  0.94772156  0.23261472    -0.80800
Cd170      Cd  0.75066616  0.97518239  0.23676650     1.59700
Cd171      Cd  0.77932128  0.04528452  0.23510235     1.59600
O172        O  0.72363830  0.00072155  0.20846991    -0.80800
O173        O  0.78096452  0.00420201  0.25419913    -1.91300
Cd174      Cd  0.82386273  0.99141098  0.24772490     1.59900
O175        O  0.73354183  0.05014015  0.21928947    -0.80800
O176        O  0.84697621  0.99411931  0.28882789    -0.79400
C177        C  0.79563716  0.06697451  0.29615605     0.83100
C178        C  0.71174077  0.97670034  0.29566441     0.82800
O179        O  0.80816422  0.99627020  0.32259922    -0.78400
C180        C  0.80522364  0.94664019  0.20665769     0.83600
O181        O  0.76937820  0.05506163  0.30041591    -0.78500
C182        C  0.71711833  0.02915996  0.20614443     0.83700
C183        C  0.83224254  0.03282609  0.19176566     0.84100
O184        O  0.80582295  0.04467738  0.19630139    -0.80900
O185        O  0.67791260  0.81318404  0.47589942    -0.78400
C186        C  0.70900067  0.72282989  0.47319864     0.82700
O187        O  0.73033979  0.82043433  0.56303865    -0.79500
O188        O  0.79175260  0.73946316  0.49535550    -0.81000
O189        O  0.76741772  0.83073741  0.43654352    -0.80800
O190        O  0.70633754  0.85627894  0.47632216    -0.79400
Zn191      Zn  0.70401033  0.78502431  0.50195221     1.55700
O192        O  0.79609952  0.78922657  0.44250758    -0.80800
Cd193      Cd  0.74926250  0.83682227  0.47935537     1.59700
Cd194      Cd  0.76582459  0.79738388  0.53766678     1.59600
O195        O  0.78229045  0.86277899  0.50135909    -0.80800
O196        O  0.74590170  0.79540490  0.49716888    -1.91300
Cd197      Cd  0.76408727  0.76530187  0.46923918     1.59900
O198        O  0.80224137  0.82832192  0.53384534    -0.80800
O199        O  0.73183852  0.73148839  0.45630669    -0.79400
C200        C  0.70126199  0.81597277  0.55922668     0.83100
C201        C  0.68102899  0.84207522  0.47134890     0.82800
O202        O  0.69717125  0.74083082  0.49290015    -0.78400
C203        C  0.79372413  0.81785236  0.43629823     0.83600
O204        O  0.69177617  0.79236006  0.54494206    -0.78500
C205        C  0.80372281  0.85407909  0.51958470     0.83700
C206        C  0.79720140  0.73511666  0.52371674     0.84100
O207        O  0.78613818  0.75299007  0.54469720    -0.80900
C208        C  0.94353190  0.88512229  0.39134459     0.86600
C209        C  0.96702998  0.90151601  0.41298490    -0.53600
C210        C  0.95295265  0.92189022  0.43319999     0.09500
C211        C  0.91713534  0.92332296  0.42961815     0.20500
C212        C  0.92096102  0.87008616  0.41356719    -0.54400
C213        C  0.90496129  0.88956333  0.43163046     0.09600
C214        C  0.92671120  0.91225776  0.37610507    -0.53900
C215        C  0.91358732  0.93264668  0.39586531     0.10200
H216        H  0.99191453  0.89926294  0.41107140     0.14700
H217        H  0.90603202  0.93926762  0.44614574     0.00500
H218        H  0.91436944  0.84595284  0.41145611     0.15000
H219        H  0.92570238  0.91520728  0.35120773     0.14800
C220        C  0.87244358  0.12375558  0.43824736     0.86600
C221        C  0.85609422  0.09947845  0.41916638    -0.53600
C222        C  0.87456365  0.08085023  0.40210957     0.09500
C223        C  0.90948004  0.08610096  0.40927076     0.20500
C224        C  0.89295393  0.10463188  0.46047662    -0.54400
C225        C  0.91268201  0.08461617  0.44546023     0.09600
C226        C  0.89564964  0.13950184  0.41705174    -0.53900
C227        C  0.91469528  0.12034675  0.40170004     0.10200
H228        H  0.83112312  0.10006889  0.41639757     0.14700
H229        H  0.92512608  0.07044454  0.39653507     0.00500
H230        H  0.89249059  0.10682798  0.48536385     0.15000
H231        H  0.89628310  0.16433779  0.41352173     0.14800
C232        C  0.87204362  0.97265422  0.61424219     0.86600
C233        C  0.88917554  0.95098252  0.63579684    -0.53600
C234        C  0.91048784  0.93283990  0.62259153     0.09500
C235        C  0.91543295  0.94036068  0.58778459     0.20500
C236        C  0.89782056  0.99305557  0.59974028    -0.54400
C237        C  0.92060592  0.97608683  0.58509307     0.09600
C238        C  0.86125859  0.95334065  0.58668673    -0.53900
C239        C  0.88360565  0.93633645  0.57284924     0.10200
H240        H  0.88160260  0.94699220  0.65945585     0.14700
H241        H  0.93372011  0.92621529  0.57691185     0.00500
H242        H  0.89666503  0.01797878  0.59840840     0.15000
H243        H  0.83744095  0.95313080  0.57868581     0.14800
C244        C  0.11443006  0.06824108  0.37428262     0.86600
C245        C  0.09468669  0.04532380  0.39364933    -0.53600
C246        C  0.07012002  0.05910296  0.40843605     0.09500
C247        C  0.06790459  0.09444174  0.40242745     0.20500
C248        C  0.09098367  0.08347354  0.35279627    -0.54400
C249        C  0.06737134  0.09874611  0.36671751     0.09600
C250        C  0.12359042  0.09277764  0.39775460    -0.53900
C251        C  0.09978324  0.10652025  0.41236090     0.10200
H252        H  0.10006841  0.02124845  0.39723853     0.14700
H253        H  0.04837143  0.10563037  0.41457138     0.00500
H254        H  0.09613642  0.08623363  0.32844229     0.15000
H255        H  0.14751287  0.09891833  0.40257114     0.14800
C256        C  0.04807495  0.14720911  0.60608949     0.86600
C257        C  0.07001102  0.16312700  0.58325753    -0.53600
C258        C  0.08814956  0.14427545  0.56584385     0.09500
C259        C  0.08048368  0.10975559  0.57148676     0.20500
C260        C  0.02787332  0.12589478  0.58584078    -0.54400
C261        C  0.04460923  0.10602687  0.56754871     0.09600
C262        C  0.06945353  0.12524250  0.62386041    -0.53900
C263        C  0.08584513  0.10559686  0.60621636     0.10200
H264        H  0.07511475  0.18736088  0.58437678     0.14700
H265        H  0.09433143  0.09380514  0.55717971     0.00500
H266        H  0.00279944  0.12593412  0.58661293     0.15000
H267        H  0.07270082  0.12608002  0.64871245     0.14800
C268        C  0.12535907  0.90492421  0.55628792     0.86600
C269        C  0.10717200  0.92706439  0.53476401    -0.53600
C270        C  0.08629136  0.94529420  0.55031186     0.09500
C271        C  0.08585752  0.93964632  0.58587599     0.20500
C272        C  0.14001130  0.92649961  0.57955098    -0.54400
C273        C  0.11993825  0.94298427  0.59661170     0.09600
C274        C  0.10001283  0.88733705  0.57363743    -0.53900
C275        C  0.07908484  0.90510346  0.58867222     0.10200
H276        H  0.10934999  0.92799781  0.50991920     0.14700
H277        H  0.06931781  0.95454453  0.59838086     0.00500
H278        H  0.16461718  0.92604307  0.58486297     0.15000
H279        H  0.09904881  0.86230487  0.57420916     0.14800
O280        O  0.02400301  0.03403417  0.42684658    -0.78400
C281        C  0.96951439  0.94645790  0.45090991     0.82700
O282        O  0.94076080  0.06746716  0.49119658    -0.79500
O283        O  0.96079161  0.97001384  0.54839392    -0.81000
O284        O  0.07046693  0.99049254  0.52231783    -0.80800
O285        O  0.06269952  0.04141252  0.46011527    -0.79400
Zn286      Zn  0.98794270  0.01626825  0.45318674     1.55700
O287        O  0.03491009  0.95465017  0.53306650    -0.80800
Cd288      Cd  0.04417398  0.02668866  0.50258246     1.59700
Cd289      Cd  0.97160147  0.04436652  0.52282530     1.59600
O290        O  0.04866831  0.06400718  0.53254932    -0.80800
O291        O  0.99889619  0.01509900  0.49771970    -1.91300
Cd292      Cd  0.99375366  0.97136762  0.51358025     1.59900
O293        O  0.00081403  0.07722517  0.54649827    -0.80800
O294        O  0.97719408  0.94143830  0.47896441    -0.79400
C295        C  0.93633231  0.06499535  0.46192295     0.83100
C296        C  0.05139803  0.04346312  0.43291306     0.82800
O297        O  0.97297038  0.97311579  0.43848436    -0.78400
C298        C  0.06271709  0.96456707  0.53420525     0.83600
O299        O  0.95224674  0.04626313  0.44587840    -0.78500
C300        C  0.03032954  0.08124458  0.54770766     0.83700
C301        C  0.94351067  0.98921618  0.56231187     0.84100
O302        O  0.94461498  0.01818752  0.55584771    -0.80900
O303        O  0.80616583  0.24295200  0.49105037    -0.78400
C304        C  0.82308522  0.34324441  0.48738921     0.82700
O305        O  0.77519173  0.31046481  0.57195966    -0.79500
O306        O  0.72807224  0.35912240  0.53019698    -0.81000
O307        O  0.70689328  0.29773113  0.44985294    -0.80800
O308        O  0.76949541  0.23616439  0.45561629    -0.79400
Zn309      Zn  0.79902824  0.28226291  0.50950698     1.55700
O310        O  0.72648461  0.34439738  0.46044947    -0.80800
Cd311      Cd  0.73694329  0.26781670  0.47417010     1.59700
Cd312      Cd  0.73857097  0.28956271  0.54603250     1.59600
O313        O  0.70926979  0.23786085  0.49785702    -0.80800
O314        O  0.75727257  0.29323807  0.50513903    -1.91300
Cd315      Cd  0.75433706  0.33740390  0.49741618     1.59900
O316        O  0.72178760  0.24360822  0.54765314    -0.80800
O317        O  0.79718882  0.35662943  0.49107809    -0.79400
C318        C  0.80297128  0.30193065  0.56682354     0.83100
C319        C  0.79397722  0.22711662  0.46991091     0.82800
O320        O  0.82675309  0.31451068  0.49196458    -0.78400
C321        C  0.70552621  0.32729885  0.44905312     0.83600
O322        O  0.80695832  0.27663110  0.55334125    -0.78500
C323        C  0.70832237  0.22864081  0.52574044     0.83700
C324        C  0.70275110  0.34755525  0.53981660     0.84100
O325        O  0.70077589  0.31878001  0.54535365    -0.80900
O326        O  0.96141089  0.71941828  0.76562498    -0.78400
C327        C  0.94277607  0.71640972  0.66641102     0.82700
O328        O  0.03883384  0.74151546  0.70078802    -0.79500
O329        O  0.98159940  0.81370198  0.65659936    -0.81000
O330        O  0.92062879  0.82605194  0.72954323    -0.80800
O331        O  0.94162413  0.76055136  0.78857460    -0.79400
Zn332      Zn  0.96409247  0.73110676  0.72265092     1.55700
O333        O  0.91213256  0.79990431  0.68671708    -0.80800
Cd334      Cd  0.94863373  0.79301653  0.75185912     1.59700
Cd335      Cd  0.01638886  0.78189449  0.71952107     1.59600
O336        O  0.97858803  0.82108679  0.77323440    -0.80800
O337        O  0.97180456  0.77303756  0.71887328    -1.91300
Cd338      Cd  0.95446720  0.78199106  0.67852147     1.59900
O339        O  0.02481537  0.79984081  0.76478562    -0.80800
O340        O  0.95343994  0.74146105  0.65548457    -0.79400
C341        C  0.02582525  0.71517999  0.69653055     0.83100
C342        C  0.95293835  0.73316334  0.78986869     0.82800
O343        O  0.93224194  0.71542150  0.69385189    -0.78400
C344        C  0.91267832  0.82525000  0.70110838     0.83600
O345        O  0.99879953  0.71016346  0.70600043    -0.78500
C346        C  0.00671786  0.81737099  0.78053699     0.83700
C347        C  0.00727714  0.82594958  0.66408130     0.84100
O348        O  0.02265612  0.81763303  0.68791295    -0.80900
C349        C  0.11208984  0.57921810  0.62293755     0.86600
C350        C  0.09195408  0.60270650  0.63896936    -0.53600
C351        C  0.06976342  0.61555652  0.62135721     0.09500
C352        C  0.06752294  0.60156200  0.58851819     0.20500
C353        C  0.08906072  0.55423414  0.61115688    -0.54400
C354        C  0.06583710  0.56594160  0.59244851     0.09600
C355        C  0.12296767  0.59459926  0.59303576    -0.53900
C356        C  0.09979353  0.60593234  0.57491064     0.10200
H357        H  0.09643709  0.61047211  0.66239742     0.14700
H358        H  0.04881103  0.61155495  0.57404614     0.00500
H359        H  0.09285893  0.52968334  0.61377715     0.15000
H360        H  0.14722340  0.59670880  0.58690977     0.14800
C361        C  0.14335816  0.41355130  0.45677598     0.86600
C362        C  0.15352825  0.44082013  0.43684800    -0.53600
C363        C  0.13179905  0.45212623  0.41698233     0.09500
C364        C  0.09908432  0.43872314  0.42418283     0.20500
C365        C  0.11784799  0.42818635  0.47704420    -0.54400
C366        C  0.09441107  0.44196799  0.46001371     0.09600
C367        C  0.12558844  0.39142407  0.43602793    -0.53900
C368        C  0.10309131  0.40401142  0.41866016     0.10200
H369        H  0.17756205  0.44769043  0.43588272     0.14700
H370        H  0.08045151  0.44950588  0.41020232     0.00500
H371        H  0.11865750  0.42865757  0.50204581     0.15000
H372        H  0.13146598  0.36712568  0.43417189     0.14800
C373        C  0.87997757  0.63179559  0.55058043     0.86600
C374        C  0.89652273  0.60805931  0.52986072    -0.53600
C375        C  0.91370579  0.58676521  0.54659193     0.09500
C376        C  0.91156828  0.59154610  0.58266533     0.20500
C377        C  0.86068871  0.61175743  0.57203110    -0.54400
C378        C  0.87672059  0.59356805  0.59165890     0.09600
C379        C  0.90671810  0.64514848  0.56954549    -0.53900
C380        C  0.92302707  0.62450175  0.58660602     0.10200
H381        H  0.89674822  0.60906884  0.50488815     0.14700
H382        H  0.92489487  0.57463385  0.59656393     0.00500
H383        H  0.83604510  0.61582050  0.57499232     0.15000
H384        H  0.91103779  0.66980352  0.57090434     0.14800
C385        C  0.88446563  0.46251785  0.38017423     0.86600
C386        C  0.90632300  0.48439893  0.39843623    -0.53600
C387        C  0.92956898  0.46898188  0.41423077     0.09500
C388        C  0.92885349  0.43336995  0.40922141     0.20500
C389        C  0.90622063  0.44455630  0.35941543    -0.54400
C390        C  0.92869301  0.42802674  0.37387792     0.09600
C391        C  0.87346251  0.43979262  0.40476275    -0.53900
C392        C  0.89622994  0.42422370  0.41930033     0.10200
H393        H  0.90286933  0.50897244  0.40070762     0.14700
H394        H  0.94726907  0.42078747  0.42179538     0.00500
H395        H  0.90110707  0.44206758  0.33501211     0.15000
H396        H  0.84916927  0.43539812  0.40960885     0.14800
C397        C  0.94942366  0.39071870  0.61972970     0.86600
C398        C  0.92885729  0.36899831  0.60108207    -0.53600
C399        C  0.91049921  0.38226853  0.57927745     0.09500
C400        C  0.91682177  0.41745391  0.57622102     0.20500
C401        C  0.96966038  0.40704363  0.59528136    -0.54400
C402        C  0.95288462  0.42172044  0.57243555     0.09600
C403        C  0.92849243  0.41662439  0.63083815    -0.53900
C404        C  0.91007238  0.42933708  0.60886025     0.10200
H405        H  0.92622170  0.34498273  0.60784712     0.14700
H406        H  0.90299807  0.42912156  0.55801558     0.00500
H407        H  0.99444110  0.40998423  0.59724031     0.15000
H408        H  0.92508490  0.42139405  0.65521675     0.14800
C409        C  0.05508136  0.63485170  0.38219993     0.86600
C410        C  0.03404333  0.61466279  0.40322153    -0.53600
C411        C  0.05023688  0.59795821  0.42537405     0.09500
C412        C  0.08626255  0.60358016  0.42362587     0.20500
C413        C  0.07286316  0.65456919  0.40507412    -0.54400
C414        C  0.09091553  0.63918179  0.42571485     0.09600
C415        C  0.07802309  0.61200132  0.36899590    -0.53900
C416        C  0.09451504  0.59591842  0.38994897     0.10200
H417        H  0.00913376  0.61328165  0.40073202     0.14700
H418        H  0.10002375  0.59040295  0.44081194     0.00500
H419        H  0.07432029  0.67931467  0.40173835     0.15000
H420        H  0.08155952  0.60915181  0.34431884     0.14800
O421        O  0.04094527  0.45050565  0.47472733    -0.78400
C422        C  0.96765079  0.44665530  0.55297059     0.82700
O423        O  0.95015481  0.51257956  0.44297473    -0.79500
O424        O  0.95138921  0.54703874  0.55060558    -0.81000
O425        O  0.06118827  0.54434690  0.54197056    -0.80800
O426        O  0.07521647  0.48774069  0.48458178    -0.79400
Zn427      Zn  0.99798102  0.46778588  0.49014394     1.55700
O428        O  0.02258320  0.53560282  0.57518537    -0.80800
Cd429      Cd  0.04697860  0.52498339  0.49935518     1.59700
Cd430      Cd  0.97568706  0.54066757  0.47475501     1.59600
O431        O  0.05311897  0.55961467  0.46548049    -0.80800
O432        O  0.00181286  0.51193991  0.50233098    -1.91300
Cd433      Cd  0.98773085  0.51584769  0.54707679     1.59900
O434        O  0.00580662  0.57125946  0.44851435    -0.80800
O435        O  0.97041942  0.47360415  0.56453418    -0.79400
C436        C  0.95045511  0.48340583  0.43800753     0.83100
C437        C  0.06880774  0.46086267  0.47419019     0.82800
O438        O  0.97774197  0.44085245  0.52575338    -0.78400
C439        C  0.04920426  0.54688941  0.56888979     0.83600
O440        O  0.96775153  0.46543652  0.45385425    -0.78500
C441        C  0.03536676  0.57520170  0.44770549     0.83700
C442        C  0.93711829  0.56527834  0.53239088     0.84100
O443        O  0.94354262  0.56617738  0.50335406    -0.80900
C444        C  0.61987635  0.39314429  0.05702615     0.86600
C445        C  0.60539485  0.41892726  0.03635127    -0.53600
C446        C  0.58502667  0.43795777  0.05199769     0.09500
C447        C  0.58219843  0.42940862  0.08706231     0.20500
C448        C  0.63475369  0.41038510  0.08351744    -0.54400
C449        C  0.61573449  0.42835050  0.10017309     0.09600
C450        C  0.59159491  0.37695096  0.07042913    -0.53900
C451        C  0.57170480  0.39545997  0.08593681     0.10200
H452        H  0.60912126  0.42080717  0.01169735     0.14700
H453        H  0.56635922  0.44431917  0.10044482     0.00500
H454        H  0.65889491  0.40716253  0.08989378     0.15000
H455        H  0.58816389  0.35222862  0.06854037     0.14800
C456        C  0.55174583  0.64668990  0.10745597     0.86600
C457        C  0.57193633  0.66226151  0.08328921    -0.53600
C458        C  0.58930587  0.64308668  0.06600843     0.09500
C459        C  0.58003232  0.60860060  0.07054730     0.20500
C460        C  0.52901178  0.62721271  0.08783490    -0.54400
C461        C  0.54400881  0.60702532  0.06818285     0.09600
C462        C  0.57161087  0.62214011  0.12354514    -0.53900
C463        C  0.58568811  0.60178565  0.10459050     0.10200
H464        H  0.57644701  0.68693971  0.08391643     0.14700
H465        H  0.59206876  0.59255954  0.05473622     0.00500
H466        H  0.50408317  0.62776994  0.09037691     0.15000
H467        H  0.57408019  0.62093137  0.14847237     0.14800
C468        C  0.45195181  0.38327498  0.89378448     0.86600
C469        C  0.47132218  0.40352920  0.91587945    -0.53600
C470        C  0.45470069  0.42679905  0.92967629     0.09500
C471        C  0.41992248  0.42746349  0.91953272     0.20500
C472        C  0.42461425  0.37214020  0.91318721    -0.54400
C473        C  0.40732407  0.39473968  0.92560382     0.09600
C474        C  0.43733202  0.40634478  0.87108758    -0.53900
C475        C  0.42100157  0.42953135  0.88412220     0.10200
H476        H  0.49578789  0.39986978  0.92006044     0.14700
H477        H  0.40585439  0.44588381  0.93026387     0.00500
H478        H  0.41694603  0.34853949  0.91538497     0.15000
H479        H  0.43803967  0.40326619  0.84622876     0.14800
C480        C  0.35655074  0.61008410  0.96442693     0.86600
C481        C  0.34362122  0.58750452  0.94026332    -0.53600
C482        C  0.36453801  0.57725609  0.91920900     0.09500
C483        C  0.39808884  0.58574875  0.92819252     0.20500
C484        C  0.38064038  0.59099644  0.98204199    -0.54400
C485        C  0.40265233  0.57810022  0.96331451     0.09600
C486        C  0.37610640  0.63324155  0.94550536    -0.53900
C487        C  0.39706948  0.62086709  0.92583583     0.10200
H488        H  0.31937702  0.58426503  0.93565228     0.14700
H489        H  0.41559377  0.57468181  0.91336063     0.00500
H490        H  0.38081303  0.58854721  0.00696940     0.15000
H491        H  0.37141493  0.65781477  0.94550716     0.14800
C492        C  0.61730268  0.56638526  0.88317479     0.86600
C493        C  0.59352476  0.54500680  0.89961357    -0.53600
C494        C  0.57215437  0.56079781  0.91735047     0.09500
C495        C  0.57675687  0.59678068  0.91595809     0.20500
C496        C  0.59708640  0.58848132  0.86467898    -0.54400
C497        C  0.57812447  0.60659440  0.88142340     0.09600
C498        C  0.63095185  0.58500240  0.90989754    -0.53900
C499        C  0.61011844  0.60096609  0.92679357     0.10200
H500        H  0.59435216  0.52009600  0.89920582     0.14700
H501        H  0.55998445  0.61019625  0.92979921     0.00500
H502        H  0.60050489  0.59212253  0.84009917     0.15000
H503        H  0.65566862  0.58650715  0.91433369     0.14800
C504        C  0.40003569  0.46437149  0.14505111     0.86600
C505        C  0.42348776  0.44154430  0.15866336    -0.53600
C506        C  0.43701673  0.42186465  0.13821949     0.09500
C507        C  0.42798149  0.42992155  0.10422214     0.20500
C508        C  0.41896652  0.48313698  0.12149013    -0.54400
C509        C  0.43365182  0.46541529  0.09976633     0.09600
C510        C  0.37857011  0.44416798  0.12551056    -0.53900
C511        C  0.39268728  0.42649132  0.10432869     0.10200
H512        H  0.42529478  0.43742333  0.18300222     0.14700
H513        H  0.43972959  0.41543778  0.08678129     0.00500
H514        H  0.41993226  0.50812470  0.12139151     0.15000
H515        H  0.35376476  0.44251780  0.12935949     0.14800
O516        O  0.45672973  0.57110968  0.97433591    -0.78400
C517        C  0.52831397  0.58117686  0.05160364     0.82700
O518        O  0.55202873  0.51624672  0.94601707    -0.79500
O519        O  0.54803947  0.47863589  0.05454862    -0.81000
O520        O  0.44008030  0.47843844  0.04604014    -0.80800
O521        O  0.42416539  0.53364389  0.98845897    -0.79400
Zn522      Zn  0.50007788  0.55710633  0.99013975     1.55700
O523        O  0.47697370  0.49333964  0.07879572    -0.80800
Cd524      Cd  0.45427432  0.49805656  0.00313250     1.59700
Cd525      Cd  0.52687488  0.48658051  0.97781939     1.59600
O526        O  0.44990282  0.46421948  0.96936489    -0.80800
O527        O  0.49873865  0.51342308  0.00465054    -1.91300
Cd528      Cd  0.51229871  0.51078973  0.04948124     1.59900
O529        O  0.49779192  0.45507207  0.95234301    -0.80800
O530        O  0.52861069  0.55430886  0.06397318    -0.79400
C531        C  0.55046022  0.54537997  0.94023063     0.83100
C532        C  0.42931180  0.55996207  0.97599731     0.82800
O533        O  0.51673772  0.58578847  0.02477099    -0.78400
C534        C  0.45128006  0.47965376  0.07339669     0.83600
O535        O  0.53138006  0.56239557  0.95477279    -0.78500
C536        C  0.46844823  0.44982564  0.95170133     0.83700
C537        C  0.56311451  0.46069006  0.03682466     0.84100
O538        O  0.55841381  0.46087918  0.00742851    -0.80900
O539        O  0.23392422  0.53493352  0.69016557    -0.78400
C540        C  0.33497427  0.53882605  0.67359614     0.82700
O541        O  0.30274976  0.45377431  0.71923233    -0.79500
O542        O  0.35281339  0.49572449  0.76868539    -0.81000
O543        O  0.28809697  0.57243188  0.79155454    -0.80800
O544        O  0.22733078  0.57011420  0.72680930    -0.79400
Zn545      Zn  0.27379669  0.51653735  0.69731900     1.55700
O546        O  0.33533238  0.56585802  0.77148664    -0.80800
Cd547      Cd  0.25902094  0.55037782  0.75925923     1.59700
Cd548      Cd  0.28213491  0.47854664  0.75617938     1.59600
O549        O  0.22873581  0.52542838  0.78531301    -0.80800
O550        O  0.28553712  0.52021690  0.73906053    -1.91300
Cd551      Cd  0.32986453  0.52894265  0.74289198     1.59900
O552        O  0.23631173  0.47585469  0.77350094    -0.80800
O553        O  0.34848447  0.53600309  0.69965307    -0.79400
C554        C  0.29391885  0.45977720  0.69178414     0.83100
C555        C  0.21816564  0.55608107  0.70235151     0.82800
O556        O  0.30622899  0.53375403  0.66990616    -0.78400
C557        C  0.31771126  0.57369838  0.79360582     0.83600
O558        O  0.26827204  0.47304140  0.68828853    -0.78500
C559        C  0.22047268  0.49729450  0.78654747     0.83700
C560        C  0.34122542  0.48138126  0.79170418     0.84100
O561        O  0.31237868  0.47558023  0.79281488    -0.80900
C562        C  0.63968152  0.61213090  0.44685488     0.86600
C563        C  0.61506267  0.59562783  0.46676223    -0.53600
C564        C  0.59500747  0.57767345  0.44958565     0.09500
C565        C  0.60181439  0.57885348  0.41398811     0.20500
C566        C  0.65492955  0.58552408  0.42956833    -0.54400
C567        C  0.63638819  0.57017566  0.40911139     0.09600
C568        C  0.62054633  0.63013946  0.42333102    -0.53900
C569        C  0.60139606  0.61312033  0.40573715     0.10200
H570        H  0.61341133  0.59786091  0.49160432     0.14700
H571        H  0.58543737  0.56466787  0.40044796     0.00500
H572        H  0.67982922  0.58320652  0.43009202     0.15000
H573        H  0.62294820  0.65489410  0.41997122     0.14800
C574        C  0.60696292  0.46178213  0.62601280     0.86600
C575        C  0.58788486  0.48233153  0.60381587    -0.53600
C576        C  0.56986921  0.46548195  0.58333338     0.09500
C577        C  0.57376897  0.42948661  0.58739542     0.20500
C578        C  0.58250346  0.44195597  0.64113652    -0.54400
C579        C  0.56718508  0.42259303  0.62225283     0.09600
C580        C  0.62543122  0.44132059  0.60425882    -0.53900
C581        C  0.60875106  0.42483569  0.58361659     0.10200
H582        H  0.58855732  0.50730631  0.60399015     0.14700
H583        H  0.55956818  0.41556387  0.57129271     0.00500
H584        H  0.58113508  0.43990058  0.66613540     0.15000
H585        H  0.65054847  0.44021913  0.60519365     0.14800
C586        C  0.45258900  0.64503864  0.59936181     0.86600
C587        C  0.47352759  0.62465374  0.57901745    -0.53600
C588        C  0.45744621  0.60577841  0.55914630     0.09500
C589        C  0.42168263  0.61005869  0.56097489     0.20500
C590        C  0.43138869  0.66251533  0.57693722    -0.54400
C591        C  0.41447096  0.64492288  0.55703923     0.09600
C592        C  0.43021728  0.62203426  0.61471352    -0.53900
C593        C  0.41461463  0.60366494  0.59489456     0.10200
H594        H  0.49845568  0.62371027  0.58170220     0.14700
H595        H  0.40838093  0.59510203  0.54503677     0.00500
H596        H  0.42417151  0.68572568  0.58183227     0.15000
H597        H  0.42620220  0.62072156  0.63942527     0.14800
C598        C  0.38478767  0.56582068  0.36993789     0.86600
C599        C  0.40108218  0.59380917  0.35629642    -0.53600
C600        C  0.41594533  0.61200389  0.37675834     0.09500
C601        C  0.41826466  0.59695552  0.40932039     0.20500
C602        C  0.41142247  0.54657022  0.38391668    -0.54400
C603        C  0.42904612  0.56268821  0.40501759     0.09600
C604        C  0.36731846  0.57708811  0.39858906    -0.53900
C605        C  0.38441917  0.59371645  0.41892121     0.10200
H606        H  0.39777155  0.60066603  0.33237192     0.14700
H607        H  0.43240974  0.61029580  0.42598641     0.00500
H608        H  0.41434929  0.52206822  0.38042798     0.15000
H609        H  0.34240113  0.57469723  0.40088918     0.14800
C610        C  0.54758460  0.38630826  0.37924311     0.86600
C611        C  0.56900402  0.36784465  0.40007036    -0.53600
C612        C  0.58795894  0.38461638  0.41842792     0.09500
C613        C  0.57945889  0.41951664  0.41827890     0.20500
C614        C  0.52691111  0.40405651  0.40222237    -0.54400
C615        C  0.54360492  0.42169313  0.42287870     0.09600
C616        C  0.56715013  0.41193375  0.36457654    -0.53900
C617        C  0.58380909  0.42916053  0.38461185     0.10200
H618        H  0.57146124  0.34307174  0.39747452     0.14700
H619        H  0.59299082  0.43391184  0.43449488     0.00500
H620        H  0.50192424  0.40497330  0.40109731     0.15000
H621        H  0.56833362  0.41565873  0.33977415     0.14800
C622        C  0.37309660  0.39942080  0.54860933     0.86600
C623        C  0.35318696  0.42178321  0.56688080    -0.53600
C624        C  0.36862822  0.44396303  0.58287218     0.09500
C625        C  0.40408556  0.44302409  0.57693856     0.20500
C626        C  0.39185398  0.42045278  0.52627772    -0.54400
C627        C  0.40848263  0.44331763  0.54112530     0.09600
C628        C  0.39773790  0.38791401  0.57096196    -0.53900
C629        C  0.41331776  0.41013321  0.58611699     0.10200
H630        H  0.32871347  0.41723760  0.57027371     0.14700
H631        H  0.41733766  0.46108892  0.58932719     0.00500
H632        H  0.39388100  0.41677419  0.50169684     0.15000
H633        H  0.40176188  0.36358067  0.57561349     0.14800
O634        O  0.46003051  0.45082280  0.52157129    -0.78400
C635        C  0.52900619  0.44638479  0.44195946     0.82700
O636        O  0.55015181  0.50930581  0.55399291    -0.79500
O637        O  0.55083168  0.54498957  0.44426349    -0.81000
O638        O  0.43782624  0.54240275  0.45547754    -0.80800
O639        O  0.42697995  0.49000284  0.51704272    -0.79400
Zn640      Zn  0.50277137  0.46704089  0.50562647     1.55700
O641        O  0.47600696  0.53707144  0.42132435    -0.80800
Cd642      Cd  0.45530607  0.52492706  0.49734875     1.59700
Cd643      Cd  0.52786804  0.53831806  0.52020164     1.59600
O644        O  0.45273929  0.56264853  0.52619627    -0.80800
O645        O  0.49991248  0.51122926  0.49315533    -1.91300
Cd646      Cd  0.51199931  0.51626590  0.44803421     1.59900
O647        O  0.50060198  0.57386119  0.54182339    -0.80800
O648        O  0.52639364  0.47340689  0.43026269    -0.79400
C649        C  0.55003518  0.47995548  0.55845778     0.83100
C650        C  0.43300927  0.46232704  0.52540577     0.82800
O651        O  0.52034520  0.44053144  0.46963741    -0.78400
C652        C  0.44881852  0.54638692  0.42839039     0.83600
O653        O  0.53346674  0.46226321  0.54167715    -0.78500
C654        C  0.47140949  0.57957811  0.54132089     0.83700
C655        C  0.56816070  0.55983752  0.46291924     0.84100
O656        O  0.56282919  0.55968278  0.49209006    -0.80900
O657        O  0.44501868  0.69404534  0.80047162    -0.78400
C658        C  0.46539942  0.71603919  0.71006605     0.82700
O659        O  0.54614486  0.74046265  0.80949022    -0.79500
O660        O  0.48894900  0.80039915  0.72098828    -0.81000
O661        O  0.41978599  0.79184808  0.80673696    -0.80800
O662        O  0.44252074  0.72613025  0.84041314    -0.79400
Zn663      Zn  0.47868729  0.71580058  0.77740274     1.55700
O664        O  0.43323475  0.81473960  0.76362888    -0.80800
Cd665      Cd  0.45654515  0.76662056  0.82031055     1.59700
Cd666      Cd  0.52075434  0.77522576  0.78572797     1.59600
O667        O  0.48152593  0.79492654  0.84897751    -0.80800
O668        O  0.47853903  0.75856483  0.78147069    -1.91300
Cd669      Cd  0.45746464  0.77655749  0.74534456     1.59900
O670        O  0.51720276  0.81167905  0.81580599    -0.80800
O671        O  0.44976459  0.74124494  0.71204186    -0.79400
C672        C  0.53740057  0.71253734  0.81406782     0.83100
C673        C  0.43758192  0.69993844  0.82820835     0.82800
O674        O  0.47955964  0.70492518  0.73332350    -0.78400
C675        C  0.42703112  0.81635796  0.79242037     0.83600
O676        O  0.51411370  0.70110966  0.80056184    -0.78500
C677        C  0.50234074  0.81417087  0.84102943     0.83700
C678        C  0.51777277  0.80546947  0.72136895     0.84100
O679        O  0.53519883  0.79509117  0.74311312    -0.80900
O680        O  0.30549392  0.00493804  0.17860715    -0.78400
C681        C  0.21675079  0.98429670  0.21487549     0.82700
O682        O  0.30469567  0.08632065  0.22565958    -0.79500
O683        O  0.23283166  0.01648347  0.29741787    -0.81000
O684        O  0.33307792  0.96559647  0.27186803    -0.80800
O685        O  0.34879732  0.00586751  0.20677074    -0.79400
Zn686      Zn  0.27351406  0.02263624  0.20648948     1.55700
O687        O  0.29065534  0.96803549  0.30069451    -0.80800
Cd688      Cd  0.33003132  0.00760894  0.25024739     1.59700
Cd689      Cd  0.28474784  0.06201739  0.26413046     1.59600
O690        O  0.35393351  0.03518362  0.28062606    -0.80800
O691        O  0.28633303  0.01965445  0.24786620    -1.91300
Cd692      Cd  0.26012114  0.99050713  0.27004173     1.59900
O693        O  0.31617280  0.06408760  0.29955696    -0.80800
O694        O  0.22610891  0.97124500  0.23991392    -0.79400
C695        C  0.29420124  0.07922730  0.19910960     0.83100
C696        C  0.33466861  0.00189309  0.18126870     0.82800
O697        O  0.23309929  0.00425476  0.20109243    -0.78400
C698        C  0.31941333  0.96174892  0.29753907     0.83600
O699        O  0.26800708  0.06650977  0.19811568    -0.78500
C700        C  0.34346462  0.05328305  0.30116166     0.83700
C701        C  0.22510744  0.04464324  0.29938377     0.84100
O702        O  0.24007001  0.06607747  0.28494281    -0.80900
O703        O  0.30521227  0.74090476  0.97702542    -0.78400
C704        C  0.31215977  0.84177872  0.95085966     0.82700
O705        O  0.29036600  0.80481084  0.05413574    -0.79500
O706        O  0.21836479  0.85526422  0.00485748    -0.81000
O707        O  0.20068343  0.78446637  0.93901730    -0.80800
O708        O  0.26096529  0.72094637  0.96032166    -0.79400
Zn709      Zn  0.29738752  0.78534734  0.97919677     1.55700
O710        O  0.22688128  0.82791465  0.93432309    -0.80800
Cd711      Cd  0.23284510  0.76068225  0.96653044     1.59700
Cd712      Cd  0.24877068  0.78870167  0.03360775     1.59600
O713        O  0.20333758  0.74251125  0.99710157    -0.80800
O714        O  0.25622176  0.79167011  0.98919953    -1.91300
Cd715      Cd  0.24887866  0.83355321  0.97521686     1.59900
O716        O  0.22908985  0.74428472  0.04169079    -0.80800
O717        O  0.29126579  0.85417270  0.96743343    -0.79400
C718        C  0.31639380  0.80931068  0.04063124     0.83100
C719        C  0.28864057  0.71761188  0.97068064     0.82800
O720        O  0.31187079  0.81296184  0.94505257    -0.78400
C721        C  0.20127457  0.81364756  0.93449803     0.83600
O722        O  0.32127734  0.80103284  0.01317730    -0.78500
C723        C  0.20880398  0.73192447  0.02381755     0.83700
C724        C  0.20593476  0.84562140  0.02981198     0.84100
O725        O  0.21467006  0.82066881  0.04291706    -0.80900
C726        C  0.39785741  0.96937850  0.85832634     0.86600
C727        C  0.41584318  0.98828916  0.88251283    -0.53600
C728        C  0.43267391  0.97030278  0.90274281     0.09500
C729        C  0.42972344  0.93487888  0.89634918     0.20500
C730        C  0.42345175  0.95042553  0.84301681    -0.54400
C731        C  0.43832344  0.92971389  0.86171073     0.09600
C732        C  0.37873382  0.94670710  0.87740080    -0.53900
C733        C  0.39486083  0.92866290  0.89692154     0.10200
H734        H  0.41529764  0.01322517  0.88386773     0.14700
H735        H  0.44329580  0.92071018  0.91284079     0.00500
H736        H  0.42658721  0.95078163  0.81827866     0.15000
H737        H  0.35383411  0.94411453  0.87465867     0.14800
C738        C  0.61600113  0.89204020  0.94285485     0.86600
C739        C  0.63054223  0.90875465  0.91567633    -0.53600
C740        C  0.61166773  0.92773892  0.89974990     0.09500
C741        C  0.57871374  0.92994521  0.91369775     0.20500
C742        C  0.60283608  0.91818328  0.96372359    -0.54400
C743        C  0.58280477  0.93802195  0.94855043     0.09600
C744        C  0.58677419  0.87696495  0.93007861    -0.53900
C745        C  0.56712510  0.89632242  0.91480462     0.10200
H746        H  0.65436693  0.90489844  0.90863518     0.14700
H747        H  0.56320129  0.94587033  0.90097898     0.00500
H748        H  0.60654713  0.91969099  0.98835016     0.15000
H749        H  0.58268159  0.85231861  0.93196899     0.14800
C750        C  0.45246626  0.89459904  0.12077413     0.86600
C751        C  0.43436509  0.87262493  0.10025779    -0.53600
C752        C  0.41781471  0.88587563  0.07719160     0.09500
C753        C  0.42198057  0.92128930  0.07574836     0.20500
C754        C  0.47371840  0.91254835  0.09779389    -0.54400
C755        C  0.45755417  0.92696135  0.07411813     0.09600
C756        C  0.42942935  0.91899917  0.13110103    -0.53900
C757        C  0.41332110  0.93259370  0.10807340     0.10200
H758        H  0.43216217  0.84834974  0.10607563     0.14700
H759        H  0.40833902  0.93255858  0.05716374     0.00500
H760        H  0.49843739  0.91532931  0.10051769     0.15000
H761        H  0.42567452  0.92481723  0.15518521     0.14800
C762        C  0.35795880  0.11377051  0.03895331     0.86600
C763        C  0.38095626  0.09308578  0.02151300    -0.53600
C764        C  0.40151796  0.07767311  0.04046039     0.09500
C765        C  0.39621906  0.08406910  0.07565558     0.20500
C766        C  0.34248001  0.09213506  0.06258202    -0.54400
C767        C  0.36170114  0.07750952  0.08294976     0.09600
C768        C  0.37882260  0.13423833  0.05893045    -0.53900
C769        C  0.39790940  0.11909765  0.07861950     0.10200
H770        H  0.38197711  0.09200311  0.99653378     0.14700
H771        H  0.41247848  0.07154262  0.09107403     0.00500
H772        H  0.31810049  0.09330047  0.06743428     0.15000
H773        H  0.37650713  0.15913421  0.05974769     0.14800
C774        C  0.54902370  0.14932993  0.89538297     0.86600
C775        C  0.52706705  0.12782751  0.91377737    -0.53600
C776        C  0.54246739  0.10951076  0.93502658     0.09500
C777        C  0.57821680  0.11466502  0.93534441     0.20500
C778        C  0.56603416  0.16707048  0.92055131    -0.54400
C779        C  0.58376288  0.14983370  0.94017918     0.09600
C780        C  0.57228301  0.12707809  0.88136071    -0.53900
C781        C  0.58760916  0.10931069  0.90178520     0.10200
H782        H  0.50241047  0.12597162  0.90960848     0.14700
H783        H  0.59036695  0.09962971  0.95218663     0.00500
H784        H  0.56768381  0.19198609  0.91914957     0.15000
H785        H  0.57716140  0.12614934  0.85675766     0.14800
C786        C  0.61566546  0.06155291  0.12296627     0.86600
C787        C  0.59497112  0.08487618  0.13912391    -0.53600
C788        C  0.57910821  0.10416570  0.12024863     0.09500
C789        C  0.58051954  0.09404055  0.08598783     0.20500
C790        C  0.59245643  0.04148011  0.10458143    -0.54400
C791        C  0.57370970  0.05846909  0.08491027     0.09600
C792        C  0.63298179  0.07920997  0.09765008    -0.53900
C793        C  0.61494152  0.09613899  0.07854059     0.10200
H794        H  0.59658283  0.08883437  0.16382931     0.14700
H795        H  0.56605886  0.10811379  0.07018059     0.00500
H796        H  0.59124900  0.01659811  0.10589660     0.15000
H797        H  0.65808163  0.07971393  0.09611942     0.14800
O798        O  0.51639028  0.08699390  0.97873382    -0.78400
C799        C  0.42858099  0.05968248  0.02797351     0.82700
O800        O  0.55364556  0.01549321  0.05504146    -0.79500
O801        O  0.45243803  0.96319813  0.03304979    -0.81000
O802        O  0.47621802  0.99732299  0.92393405    -0.80800
O803        O  0.52830290  0.05645565  0.93915750    -0.79400
Zn804      Zn  0.49988985  0.05763446  0.01331241     1.55700
O805        O  0.43990198  0.98097521  0.95671092    -0.80800
Cd806      Cd  0.51211572  0.01279477  0.95326546     1.59700
Cd807      Cd  0.52779016  0.98677878  0.02395971     1.59600
O808        O  0.54706391  0.97994620  0.94703498    -0.80800
O809        O  0.49890449  0.01432403  0.99817898    -1.91300
Cd810      Cd  0.45471478  0.99849648  0.00012309     1.59900
O811        O  0.55799790  0.96091630  0.99372764    -0.80800
O812        O  0.42389291  0.03312019  0.01606280    -0.79400
C813        C  0.55174759  0.04425725  0.06183646     0.83100
C814        C  0.52777146  0.08304985  0.95176152     0.82800
O815        O  0.45592235  0.07127280  0.02913989    -0.78400
C816        C  0.45055407  0.98360350  0.92924671     0.83600
O817        O  0.53198324  0.06171314  0.04845847    -0.78500
C818        C  0.56200237  0.96118561  0.96427136     0.83700
C819        C  0.47117694  0.94948385  0.05133862     0.84100
O820        O  0.50028533  0.95553883  0.05104743    -0.80900
O821        O  0.97623860  0.83268453  0.19728196    -0.78400
C822        C  0.96622411  0.80296061  0.28782272     0.82700
O823        O  0.05691803  0.77739180  0.18960038    -0.79500
O824        O  0.99065437  0.71823693  0.27407203    -0.81000
O825        O  0.93310242  0.73922842  0.18070959    -0.80800
O826        O  0.96888977  0.80332361  0.15558358    -0.79400
Zn827      Zn  0.99847891  0.80510587  0.22716115     1.55700
O828        O  0.93738229  0.71266988  0.22376287    -0.80800
Cd829      Cd  0.97438604  0.76040431  0.17449296     1.59700
Cd830      Cd  0.03127892  0.74324061  0.21418875     1.59600
O831        O  0.99824276  0.72965319  0.14760749    -0.80800
O832        O  0.99102163  0.76376539  0.21676143    -1.91300
Cd833      Cd  0.96347837  0.74557298  0.24784053     1.59900
O834        O  0.02594835  0.70719438  0.18451259    -0.80800
O835        O  0.94969551  0.77945433  0.28030976    -0.79400
C836        C  0.05339550  0.80543993  0.19746919     0.83100
C837        C  0.96795430  0.82917023  0.16931078     0.82800
O838        O  0.98698138  0.81354755  0.27008167    -0.78400
C839        C  0.93477623  0.71335681  0.19438629     0.83600
O840        O  0.04322419  0.81092713  0.22417074    -0.78500
C841        C  0.01425520  0.70710101  0.15758601     0.83700
C842        C  0.01917029  0.71203789  0.27685193     0.84100
O843        O  0.03961049  0.72292345  0.25807833    -0.80900
O844        O  0.80921283  0.20904151  0.94387083    -0.78400
C845        C  0.79431191  0.30225346  0.96190823     0.82700
O846        O  0.77984450  0.21550890  0.05147894    -0.79500
O847        O  0.70863321  0.29375469  0.98901650    -0.81000
O848        O  0.72152741  0.20409964  0.92688052    -0.80800
O849        O  0.78197896  0.16979506  0.96183944    -0.79400
Zn850      Zn  0.79338526  0.23615198  0.97708331     1.55700
O851        O  0.69712838  0.24769255  0.93355044    -0.80800
Cd852      Cd  0.74186133  0.19355618  0.96731847     1.59700
Cd853      Cd  0.74030656  0.23488265  0.02818666     1.59600
O854        O  0.71086426  0.17119120  0.99462588    -0.80800
O855        O  0.75104467  0.23409792  0.98400759    -1.91300
Cd856      Cd  0.73300385  0.26794089  0.95948082     1.59900
O857        O  0.70443736  0.20346094  0.03396870    -0.80800
O858        O  0.76784120  0.30063856  0.94844599    -0.79400
C859        C  0.80622668  0.20949950  0.03923954     0.83100
C860        C  0.80654809  0.18037627  0.94962200     0.82800
O861        O  0.80639613  0.27872779  0.97437951    -0.78400
C862        C  0.69634015  0.21840957  0.93073643     0.83600
O863        O  0.81284361  0.21780637  0.01213451    -0.78500
C864        C  0.69699467  0.17920106  0.01913910     0.83700
C865        C  0.70699059  0.29770209  0.01788523     0.84100
O866        O  0.72060317  0.27937524  0.03711670    -0.80900
O867        O  0.19830805  0.04350307  0.68384767    -0.78400
C868        C  0.29075172  0.04572291  0.71826239     0.82700
O869        O  0.20268324  0.94899282  0.72217413    -0.79500
O870        O  0.26797839  0.01366081  0.80135335    -0.81000
O871        O  0.16892765  0.05610375  0.78073269    -0.80800
O872        O  0.15552077  0.02999224  0.70935628    -0.79400
Zn873      Zn  0.22953376  0.01693162  0.70574399     1.55700
O874        O  0.21603967  0.06652630  0.79970248    -0.80800
Cd875      Cd  0.17510114  0.02033059  0.75160060     1.59700
Cd876      Cd  0.22508517  0.97070739  0.75996703     1.59600
O877        O  0.15445994  0.98567701  0.77723335    -0.80800
O878        O  0.21918509  0.01338995  0.74732988    -1.91300
Cd879      Cd  0.24500398  0.04101975  0.77122127     1.59900
O880        O  0.19656261  0.96424614  0.79752276    -0.80800
O881        O  0.28226137  0.05749906  0.74399336    -0.79400
C882        C  0.20574731  0.95905191  0.69458289     0.83100
C883        C  0.16890875  0.04253644  0.68628919     0.82800
O884        O  0.27247763  0.02982281  0.70196744    -0.78400
C885        C  0.18647504  0.06707653  0.80154016     0.83600
O886        O  0.22876995  0.97567921  0.68798570    -0.78500
C887        C  0.16768929  0.97010077  0.79852866     0.83700
C888        C  0.28338998  0.99009082  0.79362795     0.84100
O889        O  0.27225192  0.97038786  0.77437600    -0.80900
C890        C  0.14150987  0.11954397  0.96442533     0.86600
C891        C  0.11794087  0.10123987  0.98424046    -0.53600
C892        C  0.09775282  0.08379063  0.96679709     0.09500
C893        C  0.10295031  0.08701290  0.93138632     0.20500
C894        C  0.15666513  0.09401337  0.94541741    -0.54400
C895        C  0.13749646  0.08000787  0.92484552     0.09600
C896        C  0.12126527  0.13812514  0.94190211    -0.53900
C897        C  0.10081277  0.12137484  0.92534976     0.10200
H898        H  0.11726626  0.10177797  0.00923955     0.14700
H899        H  0.08626071  0.07336648  0.91764363     0.00500
H900        H  0.18136936  0.09006394  0.94479486     0.15000
H901        H  0.12322564  0.16296635  0.93897740     0.14800
C902        C  0.11215231  0.95454337  0.13699501     0.86600
C903        C  0.09226010  0.97587699  0.11606026    -0.53600
C904        C  0.07630050  0.96040051  0.09326390     0.09500
C905        C  0.08176104  0.92476927  0.09389193     0.20500
C906        C  0.08870100  0.93118235  0.14910290    -0.54400
C907        C  0.07351631  0.91460335  0.12717335     0.09600
C908        C  0.13244708  0.93684787  0.11448849    -0.53900
C909        C  0.11710166  0.92091080  0.09252686     0.10200
H910        H  0.09041681  0.00058757  0.11864249     0.14700
H911        H  0.06918127  0.91176287  0.07578333     0.00500
H912        H  0.08654857  0.92602127  0.17355570     0.15000
H913        H  0.15743599  0.93531492  0.11702765     0.14800
C914        C  0.94653213  0.13207036  0.12117703     0.86600
C915        C  0.96917186  0.11645639  0.09836263    -0.53600
C916        C  0.95478089  0.10030655  0.07504467     0.09500
C917        C  0.91865061  0.10189746  0.07678951     0.20500
C918        C  0.92540098  0.15159913  0.10124133    -0.54400
C919        C  0.91020374  0.13674276  0.07829257     0.09600
C920        C  0.92660723  0.10521169  0.13226567    -0.53900
C921        C  0.91176561  0.08968442  0.10949812     0.10200
H922        H  0.99392069  0.11509371  0.10204549     0.14700
H923        H  0.90639191  0.08901770  0.05837887     0.00500
H924        H  0.92055879  0.17540073  0.10721588     0.15000
H925        H  0.92353136  0.09939234  0.15648737     0.14800
C926        C  0.86483063  0.91485718  0.05271389     0.86600
C927        C  0.85023600  0.94076950  0.07178469    -0.53600
C928        C  0.86992533  0.95632175  0.09088643     0.09500
C929        C  0.90424572  0.94739057  0.08486112     0.20500
C930        C  0.88902085  0.93178757  0.03252149    -0.54400
C931        C  0.90995899  0.94899371  0.04924355     0.09600
C932        C  0.88407620  0.89644548  0.07610087    -0.53900
C933        C  0.90494494  0.91301640  0.09212594     0.10200
H934        H  0.82569404  0.94335089  0.07420556     0.14700
H935        H  0.92097908  0.96096716  0.09870728     0.00500
H936        H  0.89000726  0.92965407  0.00761820     0.15000
H937        H  0.88125471  0.87182482  0.08003466     0.14800
C938        C  0.04641951  0.88338098  0.89064217     0.86600
C939        C  0.06604133  0.86499115  0.91360717    -0.53600
C940        C  0.08645265  0.88170740  0.93078031     0.09500
C941        C  0.08232311  0.91703301  0.92558790     0.20500
C942        C  0.02825252  0.90573719  0.91165063    -0.54400
C943        C  0.04694033  0.92372347  0.93021332     0.09600
C944        C  0.06883500  0.90400811  0.87311913    -0.53900
C945        C  0.08763749  0.92133794  0.89070597     0.10200
H946        H  0.06636123  0.84010307  0.91295748     0.14700
H947        H  0.09777018  0.93140052  0.94009142     0.00500
H948        H  0.00325683  0.90724170  0.91217417     0.15000
H949        H  0.07057285  0.90408340  0.84806006     0.14800
C950        C  0.90288789  0.05804392  0.86820180     0.86600
C951        C  0.92407398  0.08286684  0.85429752    -0.53600
C952        C  0.93645041  0.10297623  0.87492002     0.09500
C953        C  0.93115815  0.09276978  0.90882256     0.20500
C954        C  0.92397591  0.03969980  0.89024630    -0.54400
C955        C  0.93905797  0.05763151  0.91176570     0.09600
C956        C  0.88155148  0.07624753  0.88993110    -0.53900
C957        C  0.89608074  0.09372499  0.91138316     0.10200
H958        H  0.92436176  0.08885416  0.83017720     0.14700
H959        H  0.94308716  0.10755284  0.92595639     0.00500
H960        H  0.92576505  0.01477464  0.88968971     0.15000
H961        H  0.85657513  0.07699815  0.88714809     0.14800
O962        O  0.97952957  0.08261385  0.02839625    -0.78400
C963        C  0.07239845  0.06418593  0.97978472     0.82700
O964        O  0.95680695  0.01514955  0.94367767    -0.79500
O965        O  0.05403341  0.96422767  0.96705368    -0.81000
O966        O  0.03042925  0.98779732  0.07696386    -0.80800
O967        O  0.97769906  0.05051314  0.06871336    -0.79400
Zn968      Zn  0.00150213  0.05760418  0.99349988     1.55700
O969        O  0.06709647  0.97883445  0.04192650    -0.80800
Cd970      Cd  0.99399185  0.00838731  0.05053021     1.59700
Cd971      Cd  0.97791250  0.98656776  0.97805074     1.59600
O972        O  0.95525700  0.97986842  0.05409522    -0.80800
O973        O  0.00566352  0.01327053  0.00530782    -1.91300
Cd974      Cd  0.05017222  0.99879465  0.00066206     1.59900
O975        O  0.94241647  0.96573812  0.00625688    -0.80800
O976        O  0.07824842  0.03604918  0.98650344    -0.79400
C977        C  0.95770805  0.04422563  0.93804496     0.83100
C978        C  0.97176803  0.07669825  0.05632845     0.82800
O979        O  0.04500362  0.07526917  0.98204290    -0.78400
C980        C  0.05682002  0.97660621  0.06949445     0.83600
O981        O  0.97370284  0.06231929  0.95495681    -0.78500
C982        C  0.93729395  0.96573051  0.03551530     0.83700
C983        C  0.03463815  0.94814380  0.95172444     0.84100
O984        O  0.00536113  0.95282428  0.95421459    -0.80900
O985        O  0.30281717  0.31514623  0.05951440    -0.78400
C986        C  0.28317574  0.21998180  0.02882272     0.82700
O987        O  0.28113766  0.31426490  0.95047388    -0.79500
O988        O  0.19463684  0.25152478  0.00220585    -0.81000
O989        O  0.22134015  0.32383156  0.07162355    -0.80800
O990        O  0.28136736  0.35678868  0.03826188    -0.79400
Zn991      Zn  0.28928142  0.28884026  0.02411100     1.55700
O992        O  0.19449588  0.28126287  0.06705037    -0.80800
Cd993      Cd  0.23952975  0.33551751  0.03032201     1.59700
Cd994      Cd  0.24109032  0.29281704  0.97006832     1.59600
O995        O  0.20771876  0.35699184  0.00100945    -0.80800
O996        O  0.24816369  0.29471265  0.01477195    -1.91300
Cd997      Cd  0.22525125  0.26153515  0.03539792     1.59900
O998        O  0.20506886  0.32347829  0.96200124    -0.80800
O999        O  0.25476165  0.22177864  0.03757385    -0.79400
C1000       C  0.30624043  0.32045919  0.96507207     0.83100
C1001       C  0.30267595  0.34419589  0.05437755     0.82800
O1002       O  0.29906677  0.24424777  0.02397172    -0.78400
C1003       C  0.19537439  0.31051943  0.07015344     0.83600
O1004       O  0.31141963  0.30921490  0.99152092    -0.78500
C1005       C  0.19598432  0.34809464  0.97540569     0.83700
C1006       C  0.20488614  0.23492514  0.98079046     0.84100
O1007       O  0.22646888  0.24565296  0.96331445    -0.80900
O1008       O  0.78642564  0.48177924  0.67948317    -0.78400
C1009       C  0.70662909  0.49210953  0.70967403     0.82700
O1010       O  0.80154165  0.57921533  0.72748487    -0.79500
O1011       O  0.72351764  0.50978996  0.79294638    -0.81000
O1012       O  0.82110294  0.45559754  0.76932725    -0.80800
O1013       O  0.83319283  0.48687480  0.70079026    -0.79400
Zn1014     Zn  0.76754279  0.51517265  0.70439023     1.55700
O1015       O  0.77716679  0.45911363  0.79567476    -0.80800
Cd1016     Cd  0.82086263  0.49605297  0.74533921     1.59700
Cd1017     Cd  0.78003294  0.55276655  0.76314300     1.59600
O1018       O  0.84980869  0.52462636  0.77062792    -0.80800
O1019       O  0.77893959  0.51204769  0.74532259    -1.91300
Cd1020     Cd  0.74978535  0.48447854  0.76447049     1.59900
O1021       O  0.81364315  0.55038249  0.79648240    -0.80800
O1022       O  0.71665616  0.47295137  0.73024778    -0.79400
C1023       C  0.80368112  0.57206081  0.69886081     0.83100
C1024       C  0.81559495  0.47823761  0.67883346     0.82800
O1025       O  0.72277514  0.51496055  0.70102604    -0.78400
C1026       C  0.80605445  0.45283933  0.79426719     0.83600
O1027       O  0.78723701  0.55117220  0.68684903    -0.78500
C1028       C  0.84140513  0.54102067  0.79351029     0.83700
C1029       C  0.71925083  0.53815428  0.79829308     0.84100
O1030       O  0.73671165  0.55915463  0.78621954    -0.80900
O1031       O  0.01920776  0.20814842  0.73773896    -0.78400
C1032       C  0.04780082  0.20265065  0.83743185     0.82700
O1033       O  0.94714467  0.24307882  0.80808781    -0.79500
O1034       O  0.00927990  0.30103083  0.85164899    -0.81000
O1035       O  0.07025316  0.31259339  0.77355538    -0.80800
O1036       O  0.04956438  0.24501776  0.71851087    -0.79400
Zn1037     Zn  0.01698367  0.21958842  0.78146236     1.55700
O1038       O  0.07548839  0.28757834  0.81733730    -0.80800
Cd1039     Cd  0.04157893  0.27954724  0.75234539     1.59700
Cd1040     Cd  0.97376695  0.27871844  0.78636551     1.59600
O1041       O  0.01393012  0.30771095  0.72772846    -0.80800
O1042       O  0.01608238  0.26240351  0.78580481    -1.91300
Cd1043     Cd  0.03378589  0.26914870  0.82680681     1.59900
O1044       O  0.96518166  0.29985903  0.74271945    -0.80800
O1045       O  0.03867761  0.22798780  0.84892699    -0.79400
C1046       C  0.95586278  0.21515303  0.81275061     0.83100
C1047       C  0.03401893  0.21988421  0.71527881     0.82800
O1048       O  0.04863097  0.19879077  0.80830690    -0.78400
C1049       C  0.07383873  0.31292756  0.80283552     0.83600
O1050       O  0.97979274  0.20407793  0.80032836    -0.78500
C1051       C  0.98518735  0.31247750  0.72459843     0.83700
C1052       C  0.98752948  0.31869686  0.84276510     0.84100
O1053       O  0.97346931  0.31486125  0.81720776    -0.80900
C1054       C  0.87282406  0.40609202  0.94800636     0.86600
C1055       C  0.89268530  0.42838923  0.96731273    -0.53600
C1056       C  0.91382246  0.44498444  0.95014824     0.09500
C1057       C  0.91278496  0.43748785  0.91497717     0.20500
C1058       C  0.85839047  0.42611484  0.92274149    -0.54400
C1059       C  0.87860651  0.44144556  0.90451286     0.09600
C1060       C  0.89655451  0.38654079  0.93035765    -0.53900
C1061       C  0.91832906  0.40261468  0.91429886     0.10200
H1062       H  0.89101350  0.42995478  0.99222749     0.14700
H1063       H  0.92942257  0.45117738  0.90114486     0.00500
H1064       H  0.83443926  0.42446880  0.91562138     0.15000
H1065       H  0.89583809  0.36155462  0.93001330     0.14800
C1066       C  0.11508194  0.46667775  0.86556322     0.86600
C1067       C  0.09145111  0.44563573  0.84997803    -0.53600
C1068       C  0.07440676  0.42730204  0.86915891     0.09500
C1069       C  0.08037966  0.43495692  0.90375974     0.20500
C1070       C  0.09482231  0.48727667  0.88650454    -0.54400
C1071       C  0.07646535  0.47066611  0.90669761     0.09600
C1072       C  0.13283723  0.44637478  0.88838423    -0.53900
C1073       C  0.11528616  0.42952900  0.90790738     0.10200
H1074       H  0.09180799  0.44246204  0.82514945     0.14700
H1075       H  0.06575417  0.42165384  0.92009441     0.00500
H1076       H  0.09480766  0.51220956  0.88607482     0.15000
H1077       H  0.15790040  0.44421113  0.88805048     0.14800
C1078       C  0.94710836  0.64868994  0.88964330     0.86600
C1079       C  0.91919501  0.65767172  0.90900917    -0.53600
C1080       C  0.90381877  0.63410488  0.92247143     0.09500
C1081       C  0.91883113  0.60221367  0.91667981     0.20500
C1082       C  0.96816872  0.63000968  0.91179860    -0.54400
C1083       C  0.95354183  0.60538726  0.92587124     0.09600
C1084       C  0.93369640  0.62439847  0.86756469    -0.53900
C1085       C  0.91942846  0.59981161  0.88124503     0.10200
H1086       H  0.90943603  0.68055321  0.91000239     0.14700
H1087       H  0.90719589  0.58285922  0.92870124     0.00500
H1088       H  0.99261944  0.63481647  0.91477177     0.15000
H1089       H  0.93366169  0.62760721  0.84272118     0.14800
C1090       C  0.04150894  0.37631587  0.09987332     0.86600
C1091       C  0.02380594  0.40097508  0.08104503    -0.53600
C1092       C  0.04280140  0.42101268  0.06488209     0.09500
C1093       C  0.07797293  0.41417900  0.06962262     0.20500
C1094       C  0.06260079  0.36084009  0.07604356    -0.54400
C1095       C  0.08298400  0.37979908  0.06117961     0.09600
C1096       C  0.06393926  0.39486434  0.11991623    -0.53900
C1097       C  0.08251048  0.41464903  0.10468445     0.10200
H1098       H  0.99878183  0.40267846  0.08091642     0.14700
H1099       H  0.09361118  0.43016261  0.05702676     0.00500
H1100       H  0.06565996  0.33627198  0.07509389     0.15000
H1101       H  0.06641544  0.39136880  0.14466804     0.14800
C1102       C  0.90255542  0.55832389  0.13378027     0.86600
C1103       C  0.91912357  0.53964726  0.10858129    -0.53600
C1104       C  0.93551191  0.55772224  0.08801336     0.09500
C1105       C  0.93301189  0.59309470  0.09490275     0.20500
C1106       C  0.92902693  0.57698124  0.14815017    -0.54400
C1107       C  0.94318820  0.59781279  0.12908606     0.09600
C1108       C  0.88278091  0.58148945  0.11600874    -0.53900
C1109       C  0.89818855  0.59928249  0.09570774     0.10200
H1110       H  0.91828842  0.51471079  0.10723598     0.14700
H1111       H  0.94578390  0.60787083  0.07826707     0.00500
H1112       H  0.93369171  0.57597518  0.17249321     0.15000
H1113       H  0.85802669  0.58410885  0.11965134     0.14800
C1114       C  0.12414767  0.63106383  0.05252768     0.86600
C1115       C  0.13842286  0.61213158  0.07834407    -0.53600
C1116       C  0.11875644  0.59327666  0.09340649     0.09500
C1117       C  0.08569502  0.59290647  0.07976727     0.20500
C1118       C  0.10992693  0.60654546  0.03037566    -0.54400
C1119       C  0.08954402  0.58655885  0.04480088     0.09600
C1120       C  0.09569816  0.64635206  0.06652477    -0.53900
C1121       C  0.07544973  0.62671123  0.08041216     0.10200
H1122       H  0.16243114  0.61469521  0.08549061     0.14700
H1123       H  0.06955506  0.57696851  0.09179760     0.00500
H1124       H  0.11311264  0.60613277  0.00565371     0.15000
H1125       H  0.09262735  0.67118931  0.06665407     0.14800
O1126       O  0.03978650  0.57700560  0.02328968    -0.78400
C1127       C  0.97011110  0.58110788  0.94444329     0.82700
O1128       O  0.95342683  0.51573714  0.05608614    -0.79500
O1129       O  0.95569344  0.48043774  0.94551695    -0.81000
O1130       O  0.06670845  0.48710479  0.95848366    -0.80800
O1131       O  0.07453646  0.53908002  0.02031932    -0.79400
Zn1132     Zn  0.99826293  0.56003155  0.00739359     1.55700
O1133       O  0.02936485  0.49492938  0.92357308    -0.80800
Cd1134     Cd  0.04810645  0.50258034  0.00090774     1.59700
Cd1135     Cd  0.97557101  0.48856699  0.02177108     1.59600
O1136       O  0.05084130  0.46442850  0.03124734    -0.80800
O1137       O  0.00334271  0.51618582  0.99528848    -1.91300
Cd1138     Cd  0.99173326  0.51220430  0.95005356     1.59900
O1139       O  0.00213180  0.45361324  0.04430746    -0.80800
O1140       O  0.97349186  0.55426190  0.93279241    -0.79400
C1141       C  0.95349856  0.54481412  0.06137875     0.83100
C1142       C  0.06705536  0.56656209  0.02794453     0.82800
O1143       O  0.97949146  0.58700144  0.97184820    -0.78400
C1144       C  0.05647914  0.48533926  0.93079400     0.83600
O1145       O  0.96891524  0.56336242  0.04436304    -0.78500
C1146       C  0.03117396  0.44775322  0.04575904     0.83700
C1147       C  0.93829182  0.46527954  0.96391765     0.84100
O1148       O  0.94201026  0.46657244  0.99327201    -0.80900
O1149       O  0.50562671  0.71594308  0.23079768    -0.78400
C1150       C  0.54287760  0.69550953  0.32473593     0.82700
O1151       O  0.44167522  0.74880925  0.30989905    -0.79500
O1152       O  0.50146888  0.79259960  0.35607240    -0.81000
O1153       O  0.56709050  0.81028434  0.27931595    -0.80800
O1154       O  0.54676192  0.74596366  0.22192715    -0.79400
Zn1155     Zn  0.50572635  0.72131049  0.27641719     1.55700
O1156       O  0.56821042  0.78473064  0.32308524    -0.80800
Cd1157     Cd  0.53773639  0.78028882  0.25518991     1.59700
Cd1158     Cd  0.47032941  0.78180686  0.28750892     1.59600
O1159       O  0.51219800  0.81022502  0.23024570    -0.80800
O1160       O  0.51061268  0.76240173  0.28629988    -1.91300
Cd1161     Cd  0.52712480  0.76303808  0.32844941     1.59900
O1162       O  0.46295088  0.80419768  0.24446155    -0.80800
O1163       O  0.53526392  0.71791946  0.34216884    -0.79400
C1164       C  0.44808606  0.72026776  0.31421158     0.83100
C1165       C  0.52743570  0.72505675  0.21322666     0.82800
O1166       O  0.53901038  0.69631411  0.29565335    -0.78400
C1167       C  0.56685753  0.81027116  0.30880184     0.83600
O1168       O  0.46967462  0.70692924  0.29970591    -0.78500
C1169       C  0.48369722  0.81614062  0.22673907     0.83700
C1170       C  0.48541612  0.81540153  0.34631540     0.84100
O1171       O  0.47471366  0.81628340  0.31896966    -0.80900
O1172       O  0.47929156  0.33750002  0.69643025    -0.78400
C1173       C  0.47005585  0.30803419  0.78948899     0.82700
O1174       O  0.56652543  0.29192382  0.70227611    -0.79500
O1175       O  0.49383149  0.22243296  0.77497084    -0.81000
O1176       O  0.44562216  0.24821300  0.67556459    -0.80800
O1177       O  0.48765533  0.30903590  0.65452874    -0.79400
Zn1178     Zn  0.50097172  0.31358306  0.72865976     1.55700
O1179       O  0.44473276  0.22138521  0.71937524    -0.80800
Cd1180     Cd  0.48904924  0.26658462  0.67645189     1.59700
Cd1181     Cd  0.54137559  0.25603823  0.72542977     1.59600
O1182       O  0.51679654  0.23294217  0.65670281    -0.80800
O1183       O  0.49931248  0.27153683  0.72026902    -1.91300
Cd1184     Cd  0.46951627  0.25170492  0.74804110     1.59900
O1185       O  0.54521374  0.21861773  0.69720031    -0.80800
O1186       O  0.45592096  0.28261320  0.78373186    -0.79400
C1187       C  0.55896660  0.31988534  0.70714288     0.83100
C1188       C  0.47891708  0.33393939  0.66732684     0.82800
O1189       O  0.48642755  0.32107242  0.76923117    -0.78400
C1190       C  0.44086689  0.22321521  0.69010684     0.83600
O1191       O  0.54422214  0.32585185  0.73137161    -0.78500
C1192       C  0.53557588  0.21428437  0.66975064     0.83700
C1193       C  0.52108441  0.22367585  0.78573046     0.84100
O1194       O  0.54263719  0.23922071  0.77201066    -0.80900
O1195       O  0.77197595  0.02639080  0.80972691    -0.78400
C1196       C  0.67198080  0.05088753  0.82390104     0.82700
O1197       O  0.69157660  0.95999940  0.77438955    -0.79500
O1198       O  0.65090498  0.02065210  0.72350764    -0.81000
O1199       O  0.72924462  0.08230863  0.71102632    -0.80800
O1200       O  0.78895967  0.05939739  0.77435374    -0.79400
Zn1201     Zn  0.72816679  0.01978322  0.80145232     1.55700
O1202       O  0.68585035  0.08505856  0.73691615    -0.80800
Cd1203     Cd  0.75199651  0.05268332  0.74233770     1.59700
Cd1204     Cd  0.71669680  0.98522676  0.73990067     1.59600
O1205       O  0.77459905  0.02643556  0.71221204    -0.80800
O1206       O  0.71952135  0.02558915  0.75948826    -1.91300
Cd1207     Cd  0.67766059  0.04306571  0.75564673     1.59900
O1208       O  0.75975322  0.97728207  0.71737247    -0.80800
O1209       O  0.65800775  0.04671995  0.79838037    -0.79400
C1210       C  0.69562841  0.96347121  0.80346662     0.83100
C1211       C  0.79361270  0.04249010  0.79838226     0.82800
O1212       O  0.70081633  0.04608927  0.82731791    -0.78400
C1213       C  0.69972835  0.08415006  0.71117310     0.83600
O1214       O  0.71973375  0.97687240  0.81305974    -0.78500
C1215       C  0.77728500  0.99824703  0.70540523     0.83700
C1216       C  0.66018955  0.00269840  0.70234758     0.84100
O1217       O  0.68643924  0.98960324  0.70378948    -0.80900
C1218       C  0.39266583  0.06992055  0.63720500     0.86600
C1219       C  0.41316863  0.04706146  0.61891438    -0.53600
C1220       C  0.42892473  0.06100845  0.59470737     0.09500
C1221       C  0.42211908  0.09627997  0.59142425     0.20500
C1222       C  0.41551830  0.09446055  0.64700212    -0.54400
C1223       C  0.42893873  0.11039667  0.62379640     0.09600
C1224       C  0.37198680  0.08424441  0.61232405    -0.53900
C1225       C  0.38681990  0.09732996  0.58792774     0.10200
H1226       H  0.41466059  0.02260233  0.62389283     0.14700
H1227       H  0.43511412  0.10734700  0.57233091     0.00500
H1228       H  0.41764485  0.10168470  0.67092349     0.15000
H1229       H  0.34693788  0.08417745  0.61434984     0.14800
C1230       C  0.55627072  0.89239529  0.62517839     0.86600
C1231       C  0.53591849  0.90461385  0.59815089    -0.53600
C1232       C  0.55139255  0.92394232  0.57795237     0.09500
C1233       C  0.58618901  0.92812084  0.58646322     0.20500
C1234       C  0.58385528  0.87719499  0.60998290    -0.54400
C1235       C  0.60003054  0.89533741  0.59043899     0.09600
C1236       C  0.56884648  0.92216479  0.63932136    -0.53900
C1237       C  0.58488171  0.94068828  0.61951856     0.10200
H1238       H  0.51097581  0.90229923  0.59754572     0.14700
H1239       H  0.59915782  0.94301791  0.57009168     0.00500
H1240       H  0.59112788  0.85382647  0.61553718     0.15000
H1241       H  0.56639169  0.92753259  0.66363886     0.14800
C1242       C  0.63357122  0.12135854  0.55840478     0.86600
C1243       C  0.64932706  0.09611813  0.57728895    -0.53600
C1244       C  0.63071655  0.07973946  0.59684762     0.09500
C1245       C  0.59578953  0.08697890  0.59064751     0.20500
C1246       C  0.61066535  0.10303353  0.53794642    -0.54400
C1247       C  0.59073147  0.08434414  0.55466994     0.09600
C1248       C  0.61275220  0.13899714  0.58038604    -0.53900
C1249       C  0.59316853  0.12171532  0.59721610     0.10200
H1250       H  0.67433472  0.09501756  0.57807295     0.14700
H1251       H  0.57957085  0.07253320  0.60423529     0.00500
H1252       H  0.61026604  0.10437736  0.51296966     0.15000
H1253       H  0.61383262  0.16392283  0.58295076     0.14800
C1254       C  0.37576038  0.89863187  0.45000467     0.86600
C1255       C  0.39101712  0.92199055  0.47272893    -0.53600
C1256       C  0.41344346  0.94037434  0.45895413     0.09500
C1257       C  0.41781045  0.93373356  0.42394702     0.20500
C1258       C  0.36366914  0.91888979  0.42389415    -0.54400
C1259       C  0.38515860  0.93617045  0.40925079     0.09600
C1260       C  0.40354598  0.88139581  0.43691779    -0.53900
C1261       C  0.42549327  0.89924658  0.42347044     0.10200
H1262       H  0.38642320  0.92289707  0.49723797     0.14700
H1263       H  0.43552150  0.94833279  0.41244162     0.00500
H1264       H  0.34006160  0.91717175  0.41532310     0.15000
H1265       H  0.40483906  0.85639065  0.43688593     0.14800
C1266       C  0.60024452  0.96146368  0.36873373     0.86600
C1267       C  0.57291262  0.94433338  0.35420879    -0.53600
C1268       C  0.55656930  0.92540151  0.37352812     0.09500
C1269       C  0.56557381  0.93136664  0.40792680     0.20500
C1270       C  0.58421522  0.98285901  0.39243315    -0.54400
C1271       C  0.56582540  0.96712446  0.41335876     0.09600
C1272       C  0.61738793  0.93792122  0.38871299    -0.53900
C1273       C  0.59968888  0.92258336  0.40919344     0.10200
H1274       H  0.57028663  0.94378996  0.32937566     0.14700
H1275       H  0.55100984  0.91871892  0.42477679     0.00500
H1276       H  0.58705840  0.00765815  0.39297097     0.15000
H1277       H  0.64205141  0.93345649  0.38663876     0.14800
C1278       C  0.46180411  0.14557739  0.39822320     0.86600
C1279       C  0.43691612  0.16035410  0.41864681    -0.53600
C1280       C  0.41554433  0.14063591  0.43054130     0.09500
C1281       C  0.42505494  0.10639463  0.42622547     0.20500
C1282       C  0.47910834  0.12382512  0.42037372    -0.54400
C1283       C  0.46008989  0.10308852  0.43541596     0.09600
C1284       C  0.44363794  0.12372568  0.37681455    -0.53900
C1285       C  0.42524901  0.10293069  0.39126565     0.10200
H1286       H  0.43279141  0.18481236  0.41995178     0.14700
H1287       H  0.40950714  0.08971158  0.43794712     0.00500
H1288       H  0.50404131  0.12419288  0.42319190     0.15000
H1289       H  0.44407351  0.12547603  0.35179675     0.14800
O1290       O  0.52571074  0.94127501  0.53127824    -0.78400
C1291       C  0.43611554  0.96017088  0.47615941     0.82700
O1292       O  0.55111931  0.01083277  0.44593810    -0.79500
O1293       O  0.45273246  0.06085235  0.47038644    -0.81000
O1294       O  0.47492890  0.03377490  0.57931094    -0.80800
O1295       O  0.53043281  0.97434249  0.57033151    -0.79400
Zn1296     Zn  0.50547544  0.96745771  0.49575089     1.55700
O1297       O  0.43824744  0.04204233  0.54383784    -0.80800
Cd1298     Cd  0.51259820  0.01633271  0.55299489     1.59700
Cd1299     Cd  0.52945767  0.03895425  0.48112854     1.59600
O1300       O  0.54869523  0.04841803  0.55832609    -0.80800
O1301       O  0.50116370  0.01151475  0.50762920    -1.91300
Cd1302     Cd  0.45606472  0.02431641  0.50209376     1.59900
O1303       O  0.56254310  0.06252180  0.51069965    -0.80800
O1304       O  0.42878641  0.98762994  0.48397136    -0.79400
C1305       C  0.54928404  0.98173924  0.44038421     0.83100
C1306       C  0.53461549  0.94756747  0.55878324     0.82800
O1307       O  0.46351709  0.94986226  0.48050418    -0.78400
C1308       C  0.44825661  0.04412588  0.57157451     0.83600
O1309       O  0.53335704  0.96405157  0.45783528    -0.78500
C1310       C  0.56605716  0.06402815  0.54022762     0.83700
C1311       C  0.47221306  0.07765774  0.45589154     0.84100
O1312       O  0.50146882  0.07280603  0.45814510    -0.80900
C1313       C  0.64529540  0.07058641  0.62745450    -0.05400
C1314       C  0.67715637  0.06342278  0.62833805    -0.32800
C1315       C  0.69515213  0.06853270  0.65480288     0.36500
C1316       C  0.68128273  0.07907746  0.68221371    -0.05700
C1317       C  0.64872382  0.08117125  0.68273640    -0.32700
C1318       C  0.63078362  0.07631904  0.65599756     0.36400
H1319       H  0.68885806  0.05599670  0.60762107     0.16700
O1320       O  0.72633913  0.06311645  0.65338540    -0.60200
H1321       H  0.63698044  0.08711071  0.70392166     0.16800
O1322       O  0.59935681  0.07950223  0.65795640    -0.60300
H1323       H  0.59108589  0.05822358  0.65870253     0.43800
H1324       H  0.73544787  0.08237026  0.64492519     0.43700
C1325       C  0.64002977  0.99573888  0.67584729    -0.05400
C1326       C  0.65316495  0.98313826  0.64911174    -0.32800
C1327       C  0.63458030  0.96905355  0.62691289     0.36500
C1328       C  0.60251830  0.96717431  0.63167924    -0.05700
C1329       C  0.58914276  0.98457810  0.65539387    -0.32700
C1330       C  0.60766230  0.99830300  0.67785085     0.36400
H1331       H  0.67804909  0.98216879  0.64645793     0.16700
O1332       O  0.64838434  0.95386205  0.60301797    -0.60200
H1333       H  0.56431102  0.98426768  0.65869049     0.16800
O1334       O  0.59381992  0.01168322  0.70286590    -0.60300
H1335       H  0.58946937  0.99447727  0.71738580     0.43800
H1336       H  0.65142221  0.96971786  0.58676443     0.43700
C1337       C  0.43771586  0.19484651  0.67169934    -0.05400
C1338       C  0.41503768  0.19231036  0.64882901    -0.32800
C1339       C  0.41342163  0.16597101  0.63016569     0.36500
C1340       C  0.43640889  0.14280081  0.63220746    -0.05700
C1341       C  0.46036289  0.14680046  0.65374667    -0.32700
C1342       C  0.46066729  0.17196677  0.67382122     0.36400
H1343       H  0.39754598  0.21000915  0.64652596     0.16700
O1344       O  0.38790662  0.16205743  0.61191589    -0.60200
H1345       H  0.47750012  0.12885564  0.65683061     0.16800
O1346       O  0.48382956  0.17416790  0.69532766    -0.60300
H1347       H  0.47649233  0.16204101  0.71331917     0.43800
H1348       H  0.37052553  0.15806914  0.62614038     0.43700
C1349       C  0.54705021  0.18690284  0.65301006    -0.05400
C1350       C  0.57404270  0.17257032  0.66378965    -0.32800
C1351       C  0.58816017  0.14932388  0.64694109     0.36500
C1352       C  0.57389108  0.13757958  0.62022119    -0.05700
C1353       C  0.54590688  0.15056115  0.61028429    -0.32700
C1354       C  0.53268521  0.17555459  0.62605746     0.36400
H1355       H  0.58593512  0.18120180  0.68400334     0.16700
O1356       O  0.61756388  0.14070051  0.65496368    -0.60200
H1357       H  0.53589162  0.14329277  0.58856838     0.16800
O1358       O  0.50749319  0.19045399  0.61365556    -0.60300
H1359       H  0.49271605  0.17431772  0.60700273     0.43800
H1360       H  0.63139505  0.15615921  0.64521312     0.43700
C1361       C  0.55943872  0.83902605  0.32629008    -0.05400
C1362       C  0.56120802  0.83939328  0.35875459    -0.32800
C1363       C  0.55464067  0.86625481  0.37560007     0.36500
C1364       C  0.54815786  0.89420530  0.36001930    -0.05700
C1365       C  0.54104488  0.89209903  0.32827284    -0.32700
C1366       C  0.54706044  0.86524303  0.31144433     0.36400
H1367       H  0.56797620  0.81881700  0.37125861     0.16700
O1368       O  0.55594860  0.86484092  0.40712164    -0.60200
H1369       H  0.53263155  0.91207997  0.31582405     0.16800
O1370       O  0.54033833  0.86492213  0.28052049    -0.60300
H1371       H  0.55856177  0.87433970  0.27031025     0.43800
H1372       H  0.53412961  0.86534176  0.41410669     0.43700
C1373       C  0.47790148  0.84116634  0.36711739    -0.05400
C1374       C  0.47896867  0.83668214  0.39912524    -0.32800
C1375       C  0.46569207  0.85828878  0.41888918     0.36500
C1376       C  0.45107618  0.88461740  0.40652301    -0.05700
C1377       C  0.45453242  0.89147644  0.37522334    -0.32700
C1378       C  0.46735338  0.86974590  0.35534747     0.36400
H1379       H  0.48825602  0.81557914  0.40879777     0.16700
O1380       O  0.46560919  0.85293808  0.45015360    -0.60200
H1381       H  0.44449794  0.91223158  0.36559289     0.16800
O1382       O  0.46838720  0.87622687  0.32435420    -0.60300
H1383       H  0.44688623  0.87346258  0.31681105     0.43800
H1384       H  0.45329574  0.83389053  0.45334517     0.43700
C1385       C  0.06998876  0.34200841  0.82081136    -0.05400
C1386       C  0.07518811  0.34188378  0.85292444    -0.32800
C1387       C  0.07164331  0.36870320  0.87059463     0.36500
C1388       C  0.06406065  0.39684240  0.85611600    -0.05700
C1389       C  0.05423608  0.39574280  0.82508368    -0.32700
C1390       C  0.05757274  0.36897611  0.80740359     0.36400
H1391       H  0.08258400  0.32097242  0.86447393     0.16700
O1392       O  0.07743799  0.36723227  0.90160515    -0.60200
H1393       H  0.04620650  0.41652344  0.81370585     0.16800
O1394       O  0.04850437  0.36957405  0.77708090    -0.60300
H1395       H  0.06627133  0.37849980  0.76567863     0.43800
H1396       H  0.05711070  0.36284057  0.91122563     0.43700
C1397       C  0.94386824  0.38621332  0.89835104    -0.05400
C1398       C  0.95531029  0.35896454  0.91188422    -0.32800
C1399       C  0.97156228  0.33755504  0.89444445     0.36500
C1400       C  0.97714366  0.34351837  0.86310118    -0.05700
C1401       C  0.96945703  0.37240096  0.85061851    -0.32700
C1402       C  0.95357752  0.39413568  0.86833007     0.36400
H1403       H  0.94961767  0.35310454  0.93552819     0.16700
O1404       O  0.97939923  0.30979235  0.90753443    -0.60200
H1405       H  0.97460628  0.37758895  0.82669564     0.16800
O1406       O  0.94526903  0.42158932  0.85501134    -0.60300
H1407       H  0.96400672  0.43472080  0.85625840     0.43800
H1408       H  0.96093124  0.29647147  0.90489357     0.43700
C1409       C  0.82427585  0.44877893  0.82283569    -0.05400
C1410       C  0.84617054  0.42523446  0.82531404    -0.32800
C1411       C  0.86660355  0.42392954  0.85057226     0.36500
C1412       C  0.86681210  0.44773489  0.87282680    -0.05700
C1413       C  0.84560525  0.47196225  0.86941507    -0.32700
C1414       C  0.82408583  0.47221114  0.84518869     0.36400
H1415       H  0.84668783  0.40717801  0.80816044     0.16700
O1416       O  0.88345898  0.39758832  0.85534301    -0.60200
H1417       H  0.84416345  0.48956623  0.88699035     0.16800
O1418       O  0.80322597  0.49587857  0.84316736    -0.60300
H1419       H  0.78574915  0.48962794  0.85659285     0.43800
H1420       H  0.89488286  0.39380257  0.83592328     0.43700
C1421       C  0.86397705  0.54977046  0.81739767    -0.05400
C1422       C  0.85382038  0.55333322  0.84788146    -0.32800
C1423       C  0.87324823  0.56559140  0.87045413     0.36500
C1424       C  0.90275087  0.57660522  0.86215494    -0.05700
C1425       C  0.91405394  0.56979279  0.83247267    -0.32700
C1426       C  0.89490153  0.55655516  0.81013293     0.36400
H1427       H  0.83029843  0.54755540  0.85414212     0.16700
O1428       O  0.86197971  0.56892050  0.89973605    -0.60200
H1429       H  0.93724002  0.57660447  0.82589061     0.16800
O1430       O  0.90598949  0.55251251  0.78080660    -0.60300
H1431       H  0.90208073  0.57230736  0.76998446     0.43800
H1432       H  0.86409861  0.54830212  0.90946945     0.43700
C1433       C  0.16738957  0.32966880  0.06470339    -0.05400
C1434       C  0.14218456  0.31757225  0.04823044    -0.32800
C1435       C  0.11599827  0.33560860  0.04212692     0.36500
C1436       C  0.11388384  0.36588272  0.05390834    -0.05700
C1437       C  0.14067170  0.37912533  0.06638683    -0.32700
C1438       C  0.16700049  0.36129415  0.07232352     0.36400
H1439       H  0.14270637  0.29404221  0.04004597     0.16700
O1440       O  0.09175122  0.32276772  0.02628253    -0.60200
H1441       H  0.14079226  0.40298369  0.07328331     0.16800
O1442       O  0.19194484  0.37500258  0.08625200    -0.60300
H1443       H  0.18891125  0.37154691  0.10866578     0.43800
H1444       H  0.09236391  0.33246119  0.00553005     0.43700
C1445       C  0.13027363  0.40523361  0.92667276    -0.05400
C1446       C  0.13456120  0.40940792  0.95837790    -0.32800
C1447       C  0.15572237  0.39102987  0.97481410     0.36500
C1448       C  0.17192537  0.36714275  0.95977334    -0.05700
C1449       C  0.16635724  0.36236170  0.92824154    -0.32700
C1450       C  0.14629130  0.38142412  0.91163646     0.36400
H1451       H  0.12318843  0.42832365  0.96994168     0.16700
O1452       O  0.16108686  0.39736041  0.00523890    -0.60200
H1453       H  0.17887737  0.34477760  0.91580698     0.16800
O1454       O  0.14437277  0.37839957  0.88014949    -0.60300
H1455       H  0.13713882  0.35704979  0.87638982     0.43800
H1456       H  0.17616993  0.41459835  0.00522882     0.43700
C1457       C  0.93674242  0.13625024  0.86514376    -0.05400
C1458       C  0.91340417  0.14776320  0.84510029    -0.32800
C1459       C  0.91661720  0.17635284  0.83015875     0.36500
C1460       C  0.94240818  0.19474933  0.83650481    -0.05700
C1461       C  0.96292637  0.18537441  0.86013486    -0.32700
C1462       C  0.96052284  0.15622812  0.87405977     0.36400
H1463       H  0.89362439  0.13360530  0.83922179     0.16700
O1464       O  0.89592525  0.18485937  0.80769020    -0.60200
H1465       H  0.98313001  0.19925702  0.86518422     0.16800
O1466       O  0.98328223  0.14634919  0.89377815    -0.60300
H1467       H  0.97826180  0.15575227  0.91394328     0.43800
H1468       H  0.90244854  0.17366005  0.78891261     0.43700
C1469       C  0.82449690  0.04001379  0.81370575    -0.05400
C1470       C  0.85149583  0.04896996  0.79823771    -0.32800
C1471       C  0.88040514  0.04823071  0.81331050     0.36500
C1472       C  0.88207293  0.04052534  0.84516629    -0.05700
C1473       C  0.85661052  0.02475962  0.85774583    -0.32700
C1474       C  0.82779899  0.02559422  0.84301533     0.36400
H1475       H  0.85028522  0.05634098  0.77435749     0.16700
O1476       O  0.90684001  0.05256170  0.79629453    -0.60200
H1477       H  0.85761730  0.01652336  0.88137224     0.16800
O1478       O  0.80281392  0.01359896  0.85843607    -0.60300
H1479       H  0.79516338  0.03058220  0.87156800     0.43800
H1480       H  0.90373372  0.07167216  0.78402268     0.43700
C1481       C  0.05710681  0.17783739  0.85886558    -0.05400
C1482       C  0.05057827  0.18150848  0.89038462    -0.32800
C1483       C  0.06203097  0.16090823  0.91212127     0.36500
C1484       C  0.08060497  0.13630885  0.90264553    -0.05700
C1485       C  0.08463600  0.13057106  0.87114868    -0.32700
C1486       C  0.07293013  0.15119988  0.84912413     0.36400
H1487       H  0.03743125  0.20106307  0.89850471     0.16700
O1488       O  0.05692847  0.16629442  0.94284753    -0.60200
H1489       H  0.09875284  0.11150102  0.86365902     0.16800
O1490       O  0.07825987  0.14577625  0.81845493    -0.60300
H1491       H  0.09931474  0.15386785  0.81445082     0.43800
H1492       H  0.03958029  0.15246753  0.94858792     0.43700
C1493       C  0.16432747  0.14306660  0.97809241    -0.05400
C1494       C  0.19202863  0.15004464  0.96166872    -0.32800
C1495       C  0.20564813  0.17943278  0.96213553     0.36500
C1496       C  0.19202770  0.20301940  0.97925140    -0.05700
C1497       C  0.16623354  0.19551359  0.99783460    -0.32700
C1498       C  0.15270914  0.16617479  0.99757806     0.36400
H1499       H  0.20232752  0.13390989  0.94600328     0.16700
O1500       O  0.23198152  0.18479541  0.94535362    -0.60200
H1501       H  0.15545276  0.21288934  0.01204473     0.16800
O1502       O  0.12567322  0.16169960  0.01343459    -0.60300
H1503       H  0.13212462  0.15578061  0.03459272     0.43800
H1504       H  0.22468512  0.18995620  0.92425883     0.43700
C1505       C  0.32196303  0.05039729  0.70549569    -0.05400
C1506       C  0.33257159  0.08023280  0.70123783    -0.32800
C1507       C  0.35625522  0.08626384  0.68032725     0.36500
C1508       C  0.37166901  0.06179155  0.66452348    -0.05700
C1509       C  0.36297027  0.03145491  0.67147931    -0.32700
C1510       C  0.33804488  0.02570187  0.69152164     0.36400
H1511       H  0.32023010  0.09934997  0.71143213     0.16700
O1512       O  0.36243700  0.11660400  0.67363162    -0.60200
H1513       H  0.37374730  0.01235833  0.65974385     0.16800
O1514       O  0.32817285  0.99592733  0.69567705    -0.60300
H1515       H  0.33630617  0.98967162  0.71616355     0.43800
H1516       H  0.34479811  0.12374833  0.66084391     0.43700
C1517       C  0.17165685  0.07505014  0.83105359    -0.05400
C1518       C  0.14580365  0.05753853  0.84040333    -0.32800
C1519       C  0.13504472  0.05812585  0.87083040     0.36500
C1520       C  0.14942039  0.07733217  0.89247073    -0.05700
C1521       C  0.17405316  0.09650965  0.88225966    -0.32700
C1522       C  0.18566998  0.09475713  0.85230208     0.36400
H1523       H  0.13485635  0.04191325  0.82443196     0.16700
O1524       O  0.11143512  0.03883750  0.87945311    -0.60200
H1525       H  0.18472432  0.11314147  0.89738890     0.16800
O1526       O  0.21051933  0.11261846  0.84397849    -0.60300
H1527       H  0.22886088  0.10189687  0.85257989     0.43800
H1528       H  0.09281160  0.04666862  0.86859909     0.43700
C1529       C  0.11208335  0.93901097  0.87491291    -0.05400
C1530       C  0.13952434  0.92363564  0.86730795    -0.32800
C1531       C  0.15839887  0.93403987  0.84330325     0.36500
C1532       C  0.14921618  0.95951190  0.82529314    -0.05700
C1533       C  0.12177135  0.97500692  0.83297149    -0.32700
C1534       C  0.10358030  0.96529958  0.85783752     0.36400
H1535       H  0.14489435  0.90165378  0.87764941     0.16700
O1536       O  0.18450521  0.91765139  0.83623154    -0.60200
H1537       H  0.11373103  0.99408845  0.81900363     0.16800
O1538       O  0.07558772  0.97929951  0.86274554    -0.60300
H1539       H  0.07649914  0.98739847  0.88408282     0.43800
H1540       H  0.17756641  0.90155973  0.82157813     0.43700
C1541       C  0.81190052  0.33158745  0.96460734    -0.05400
C1542       C  0.84164183  0.33116178  0.97812837    -0.32800
C1543       C  0.86013594  0.35769966  0.97885987     0.36500
C1544       C  0.84950216  0.38496258  0.96465158    -0.05700
C1545       C  0.81748185  0.38685463  0.95816036    -0.32700
C1546       C  0.79912239  0.36027808  0.95673045     0.36400
H1547       H  0.85132060  0.30993952  0.98711317     0.16700
O1548       O  0.88947999  0.35631209  0.99107213    -0.60200
H1549       H  0.80675538  0.40851184  0.95214166     0.16800
O1550       O  0.76888448  0.36272410  0.94751004    -0.60300
H1551       H  0.76952442  0.36268131  0.92464374     0.43800
H1552       H  0.90039936  0.33961239  0.97998575     0.43700
C1553       C  0.83074125  0.19115436  0.05422619    -0.05400
C1554       C  0.86056316  0.20383781  0.05373415    -0.32800
C1555       C  0.88672173  0.18540241  0.05724930     0.36500
C1556       C  0.88380905  0.15347854  0.06322738    -0.05700
C1557       C  0.85417186  0.14026408  0.06128800    -0.32700
C1558       C  0.82773113  0.15887005  0.05715583     0.36400
H1559       H  0.86367599  0.22815352  0.04876911     0.16700
O1560       O  0.91531886  0.19897040  0.05504839    -0.60200
H1561       H  0.85144051  0.11560566  0.06290547     0.16800
O1562       O  0.79936892  0.14510489  0.05380908    -0.60300
H1563       H  0.78932819  0.14692300  0.07427280     0.43800
H1564       H  0.92222678  0.19499442  0.03363564     0.43700
C1565       C  0.83225606  0.15900022  0.94369617    -0.05400
C1566       C  0.82790057  0.12758226  0.95037408    -0.32800
C1567       C  0.85071657  0.10621886  0.94365097     0.36500
C1568       C  0.87822548  0.11595062  0.92949272    -0.05700
C1569       C  0.88424981  0.14750433  0.92609351    -0.32700
C1570       C  0.86136772  0.16912214  0.93293360     0.36400
H1571       H  0.80632465  0.11921167  0.95993805     0.16700
O1572       O  0.84494934  0.07551648  0.94867765    -0.60200
H1573       H  0.90571091  0.15538939  0.91602720     0.16800
O1574       O  0.86756422  0.19983490  0.92850954    -0.60300
H1575       H  0.86484886  0.20346704  0.90607019     0.43800
H1576       H  0.85499540  0.07070326  0.96870644     0.43700
C1577       C  0.05905444  0.88503458  0.13716432    -0.05400
C1578       C  0.07119878  0.85678140  0.12702665    -0.32800
C1579       C  0.06918111  0.83008562  0.14573525     0.36500
C1580       C  0.05521598  0.83173526  0.17511352    -0.05700
C1581       C  0.04032782  0.85935934  0.18323247    -0.32700
C1582       C  0.04104906  0.88518260  0.16409811     0.36400
H1583       H  0.08434146  0.85594462  0.10583913     0.16700
O1584       O  0.08205810  0.80313479  0.13565529    -0.60200
H1585       H  0.02831414  0.86139906  0.20500517     0.16800
O1586       O  0.02705546  0.91176878  0.17378222    -0.60300
H1587       H  0.00670931  0.91209806  0.16319769     0.43800
H1588       H  0.10342597  0.80314919  0.14395790     0.43700
C1589       C  0.94011590  0.68461145  0.17613285    -0.05400
C1590       C  0.95306947  0.65872376  0.19079959    -0.32800
C1591       C  0.95934068  0.63163420  0.17452710     0.36500
C1592       C  0.95060132  0.62889529  0.14306817    -0.05700
C1593       C  0.94204622  0.65610213  0.12750160    -0.32700
C1594       C  0.93649123  0.68359919  0.14369596     0.36400
H1595       H  0.95875309  0.65946940  0.21512690     0.16700
O1596       O  0.97308394  0.60771315  0.19018799    -0.60200
H1597       H  0.93707651  0.65570561  0.10306143     0.16800
O1598       O  0.92686290  0.70905556  0.12749155    -0.60300
H1599       H  0.90397717  0.70870417  0.12868506     0.43800
H1600       H  0.99166221  0.60213911  0.17807560     0.43700
C1601       C  0.95463697  0.85517451  0.15288546    -0.05400
C1602       C  0.96976064  0.86786184  0.12722446    -0.32800
C1603       C  0.95473888  0.88965197  0.10870467     0.36500
C1604       C  0.92412751  0.89790339  0.11547799    -0.05700
C1605       C  0.90932880  0.88533682  0.14136574    -0.32700
C1606       C  0.92458773  0.86447759  0.16037063     0.36400
H1607       H  0.99264944  0.85999921  0.12095590     0.16700
O1608       O  0.96881688  0.90019779  0.08236636    -0.60200
H1609       H  0.88516294  0.89010230  0.14565879     0.16800
O1610       O  0.90913196  0.85141728  0.18478729    -0.60300
H1611       H  0.89808910  0.83337010  0.17607922     0.43800
H1612       H  0.97833080  0.92014308  0.08816446     0.43700
C1613       C  0.02076518  0.68086406  0.13720496    -0.05400
C1614       C  0.01765537  0.68450935  0.10520014    -0.32800
C1615       C  0.03181794  0.66369110  0.08529567     0.36500
C1616       C  0.04890076  0.63891074  0.09759932    -0.05700
C1617       C  0.04667962  0.63200574  0.12901178    -0.32700
C1618       C  0.03313944  0.65312724  0.14902743     0.36400
H1619       H  0.00675157  0.70484292  0.09555806     0.16700
O1620       O  0.03091677  0.66879219  0.05400010    -0.60200
H1621       H  0.05854858  0.61218796  0.13854594     0.16800
O1622       O  0.03358485  0.64722817  0.18015218    -0.60300
H1623       H  0.05518658  0.65099551  0.18680064     0.43800
H1624       H  0.04197558  0.68853916  0.05041512     0.43700
C1625       C  0.62938685  0.11788449  0.05691190    -0.05400
C1626       C  0.62690229  0.14951580  0.06258193    -0.32800
C1627       C  0.64830503  0.17014601  0.04981238     0.36500
C1628       C  0.67212559  0.15905242  0.03072493    -0.05700
C1629       C  0.67273565  0.12768939  0.02303999    -0.32700
C1630       C  0.65170556  0.10712483  0.03613251     0.36400
H1631       H  0.60990190  0.15796940  0.07875671     0.16700
O1632       O  0.64596607  0.20092272  0.05640481    -0.60200
H1633       H  0.69050054  0.11871261  0.00798228     0.16800
O1634       O  0.65384826  0.07628253  0.02959908    -0.60300
H1635       H  0.67247353  0.06890042  0.04074290     0.43800
H1636       H  0.65518982  0.20327475  0.07722978     0.43700
C1637       C  0.65426658  0.06259834  0.84974578    -0.05400
C1638       C  0.62805494  0.04648345  0.85996364    -0.32800
C1639       C  0.60757031  0.06021265  0.88062501     0.36500
C1640       C  0.61317910  0.09043405  0.89060948    -0.05700
C1641       C  0.63992513  0.10598487  0.88084508    -0.32700
C1642       C  0.66099504  0.09186245  0.86139337     0.36400
H1643       H  0.62268215  0.02397083  0.85067394     0.16700
O1644       O  0.58081711  0.04517058  0.88861642    -0.60200
H1645       H  0.64322247  0.13008796  0.88621020     0.16800
O1646       O  0.68602419  0.10826471  0.85087715    -0.60300
H1647       H  0.70204048  0.10580228  0.86708793     0.43800
H1648       H  0.56579390  0.05027316  0.87205097     0.43700
C1649       C  0.61375877  0.16468574  0.95015804    -0.05400
C1650       C  0.61427777  0.19669580  0.95576757    -0.32800
C1651       C  0.64069154  0.21451199  0.94959784     0.36500
C1652       C  0.66780428  0.20037723  0.93849981    -0.05700
C1653       C  0.66868216  0.16789373  0.93818909    -0.32700
C1654       C  0.64243570  0.15015201  0.94528895     0.36400
H1655       H  0.59322328  0.20845329  0.96226291     0.16700
O1656       O  0.63943568  0.24571509  0.95416551    -0.60200
H1657       H  0.68984523  0.15600135  0.93232748     0.16800
O1658       O  0.64503393  0.11872426  0.94560945    -0.60300
H1659       H  0.64425619  0.11267993  0.96762802     0.43800
H1660       H  0.63081211  0.25434276  0.93477557     0.43700
C1661       C  0.53936450  0.17133536  0.86937480    -0.05400
C1662       C  0.50932878  0.17253606  0.85749848    -0.32800
C1663       C  0.50283909  0.18993193  0.83078445     0.36500
C1664       C  0.52676892  0.20640763  0.81509325    -0.05700
C1665       C  0.55636099  0.20611895  0.82776239    -0.32700
C1666       C  0.56278893  0.18915597  0.85440301     0.36400
H1667       H  0.49098205  0.15934120  0.86819709     0.16700
O1668       O  0.47308582  0.18973554  0.81979717    -0.60200
H1669       H  0.57502215  0.21855586  0.81661021     0.16800
O1670       O  0.59293279  0.18826565  0.86443089    -0.60300
H1671       H  0.59696847  0.20869529  0.87370108     0.43800
H1672       H  0.46236587  0.20632959  0.83119098     0.43700
C1673       C  0.33499385  0.13497246  0.02118811    -0.05400
C1674       C  0.30273645  0.13383301  0.02705551    -0.32800
C1675       C  0.28505771  0.16096375  0.02903921     0.36500
C1676       C  0.29892506  0.18972596  0.02301019    -0.05700
C1677       C  0.32874814  0.18960157  0.00968254    -0.32700
C1678       C  0.34620118  0.16242896  0.00764032     0.36400
H1679       H  0.29123273  0.11235847  0.03229475     0.16700
O1680       O  0.25490859  0.15904945  0.03855567    -0.60200
H1681       H  0.33939694  0.21092033  0.00208697     0.16800
O1682       O  0.37605626  0.16415557  0.99718513    -0.60300
H1683       H  0.37492990  0.15798452  0.97521601     0.43800
H1684       H  0.24258531  0.15729777  0.01929151     0.43700
C1685       C  0.46293274  0.87635282  0.14931937    -0.05400
C1686       C  0.43907904  0.86296418  0.16749515    -0.32800
C1687       C  0.44519823  0.84376041  0.19261513     0.36500
C1688       C  0.47582908  0.83742300  0.20084765    -0.05700
C1689       C  0.49987193  0.85129257  0.18338163    -0.32700
C1690       C  0.49368729  0.87030391  0.15776747     0.36400
H1691       H  0.41504409  0.86683976  0.16153402     0.16700
O1692       O  0.42091909  0.83116303  0.20863900    -0.60200
H1693       H  0.52384828  0.84701820  0.18918926     0.16800
O1694       O  0.51790450  0.88209424  0.14118654    -0.60300
H1695       H  0.52284029  0.86609807  0.12569718     0.43800
H1696       H  0.41580643  0.81179670  0.19765896     0.43700
C1697       C  0.62479233  0.94279973  0.87179035    -0.05400
C1698       C  0.64761022  0.96488890  0.87728618    -0.32800
C1699       C  0.67103981  0.97084660  0.85580885     0.36500
C1700       C  0.67118521  0.95576154  0.82678878    -0.05700
C1701       C  0.64705034  0.93505568  0.82031632    -0.32700
C1702       C  0.62457968  0.92776383  0.84289029     0.36400
H1703       H  0.64923366  0.97532718  0.89990871     0.16700
O1704       O  0.69508410  0.98972611  0.86445291    -0.60200
H1705       H  0.64661723  0.92312322  0.79844041     0.16800
O1706       O  0.60482570  0.90354376  0.83787187    -0.60300
H1707       H  0.59295466  0.90899803  0.81901019     0.43800
H1708       H  0.68577050  0.00851281  0.87341550     0.43700
C1709       C  0.37470247  0.98340594  0.83537491    -0.05400
C1710       C  0.36610243  0.96502482  0.80961087    -0.32800
C1711       C  0.33686758  0.96675668  0.79592718     0.36500
C1712       C  0.31490282  0.98736529  0.80729086    -0.05700
C1713       C  0.32376391  0.00730471  0.83143019    -0.32700
C1714       C  0.35289921  0.00522464  0.84559303     0.36400
H1715       H  0.38051575  0.94647883  0.80159131     0.16700
O1716       O  0.32989614  0.94744908  0.77194511    -0.60200
H1717       H  0.30751047  0.02387472  0.84052602     0.16800
O1718       O  0.35870956  0.02290403  0.87107678    -0.60300
H1719       H  0.34918275  0.01160092  0.88859069     0.43800
H1720       H  0.32299089  0.92794143  0.78178444     0.43700
C1721       C  0.14754298  0.65603463  0.04344088    -0.05400
C1722       C  0.15800158  0.67580871  0.06739184    -0.32800
C1723       C  0.17925757  0.69951253  0.06208275     0.36500
C1724       C  0.19050570  0.70437243  0.03229660    -0.05700
C1725       C  0.18093102  0.68436871  0.00847587    -0.32700
C1726       C  0.15984871  0.66039240  0.01377916     0.36400
H1727       H  0.14922760  0.67296033  0.09063819     0.16700
O1728       O  0.18788457  0.71837460  0.08589260    -0.60200
H1729       H  0.18949978  0.68768340  0.98521546     0.16800
O1730       O  0.15112620  0.64226425  0.98955203    -0.60300
H1731       H  0.16710085  0.62595001  0.98841232     0.43800
H1732       H  0.17232766  0.73512873  0.08606729     0.43700
C1733       C  0.34143022  0.82764170  0.05428465    -0.05400
C1734       C  0.37173419  0.81649026  0.05176146    -0.32800
C1735       C  0.39717289  0.83597195  0.05612785     0.36500
C1736       C  0.39261073  0.86745482  0.06273061    -0.05700
C1737       C  0.36246041  0.87913150  0.06194917    -0.32700
C1738       C  0.33692105  0.85936152  0.05908524     0.36400
H1739       H  0.37568770  0.79270951  0.04538404     0.16700
O1740       O  0.42653651  0.82450669  0.05257681    -0.60200
H1741       H  0.35865220  0.90360424  0.06379611     0.16800
O1742       O  0.30774078  0.87162996  0.05843230    -0.60300
H1743       H  0.30040961  0.87055114  0.08008785     0.43800
H1744       H  0.42885290  0.80807319  0.06838474     0.43700
C1745       C  0.17202954  0.83184358  0.93507901    -0.05400
C1746       C  0.14452221  0.81761745  0.94483788    -0.32800
C1747       C  0.11697975  0.83444920  0.94774977     0.36500
C1748       C  0.11619579  0.86615700  0.93992120    -0.05700
C1749       C  0.14441383  0.88100665  0.93411215    -0.32700
C1750       C  0.17197283  0.86425049  0.93115535     0.36400
H1751       H  0.14428527  0.79331630  0.95064008     0.16700
O1752       O  0.09102968  0.81998816  0.95904350    -0.60200
H1753       H  0.14507335  0.90560477  0.93016447     0.16800
O1754       O  0.19852135  0.87988936  0.92363915    -0.60300
H1755       H  0.20682059  0.88760993  0.94351023     0.43800
H1756       H  0.08728597  0.80195747  0.94554603     0.43700
C1757       C  0.37901789  0.90261011  0.91183646    -0.05400
C1758       C  0.37429508  0.90267741  0.94370239    -0.32800
C1759       C  0.35300399  0.88222530  0.95692551     0.36500
C1760       C  0.33681597  0.86117735  0.93819236    -0.05700
C1761       C  0.34325500  0.85968772  0.90671339    -0.32700
C1762       C  0.36357706  0.88074854  0.89332379     0.36400
H1763       H  0.38568759  0.91969545  0.95798946     0.16700
O1764       O  0.34774353  0.88328486  0.98803451    -0.60200
H1765       H  0.33105957  0.84345876  0.89215897     0.16800
O1766       O  0.36751601  0.88057722  0.86191106    -0.60300
H1767       H  0.34863146  0.89022507  0.85321577     0.43800
H1768       H  0.36314383  0.86895380  0.99708886     0.43700
C1769       C  0.18059106  0.86351580  0.04428556    -0.05400
C1770       C  0.17241185  0.85685444  0.07492068    -0.32800
C1771       C  0.14972347  0.87389600  0.09003369     0.36500
C1772       C  0.13425799  0.89789067  0.07441003    -0.05700
C1773       C  0.14116317  0.90379457  0.04342585    -0.32700
C1774       C  0.16438740  0.88704545  0.02840106     0.36400
H1775       H  0.18450239  0.83913566  0.08781091     0.16700
O1776       O  0.14467287  0.86887198  0.12094150    -0.60200
H1777       H  0.12994177  0.92269143  0.03145442     0.16800
O1778       O  0.17131001  0.89425491  0.99840931    -0.60300
H1779       H  0.18591813  0.91185054  0.99957428     0.43800
H1780       H  0.13801013  0.84708638  0.12286447     0.43700
C1781       C  0.13346363  0.96573796  0.16306943    -0.05400
C1782       C  0.14679632  0.94279907  0.18254683    -0.32800
C1783       C  0.17258966  0.94870217  0.20115780     0.36500
C1784       C  0.18623063  0.97787931  0.20054237    -0.05700
C1785       C  0.17205271  0.00137179  0.18284632    -0.32700
C1786       C  0.14612290  0.99559831  0.16426536     0.36400
H1787       H  0.13878503  0.91918066  0.18154800     0.16700
O1788       O  0.18555260  0.92515496  0.21792779    -0.60200
H1789       H  0.18203820  0.02428405  0.18226024     0.16800
O1790       O  0.13545013  0.01870510  0.14551201    -0.60300
H1791       H  0.12140747  0.03098249  0.15865954     0.43800
H1792       H  0.20046979  0.91524247  0.20376558     0.43700
C1793       C  0.34841500  0.07151410  0.11469342    -0.05400
C1794       C  0.36214664  0.08375547  0.14155132    -0.32800
C1795       C  0.34509703  0.08728946  0.16916579     0.36500
C1796       C  0.31361834  0.07857140  0.17036208    -0.05700
C1797       C  0.30087307  0.06441970  0.14403000    -0.32700
C1798       C  0.31816376  0.05964273  0.11732342     0.36400
H1799       H  0.38590267  0.09130749  0.14116040     0.16700
O1800       O  0.35952198  0.09910384  0.19468634    -0.60200
H1801       H  0.27729256  0.05598320  0.14420764     0.16800
O1802       O  0.30457011  0.04446815  0.09313666    -0.60300
H1803       H  0.31269480  0.02315188  0.09430141     0.43800
H1804       H  0.35846352  0.12178164  0.19208078     0.43700
C1805       C  0.33862229  0.95549197  0.32518888    -0.05400
C1806       C  0.33873242  0.97729766  0.34906705    -0.32800
C1807       C  0.35763714  0.97349422  0.37514360     0.36500
C1808       C  0.37672835  0.94744295  0.37795283    -0.05700
C1809       C  0.37769976  0.92639288  0.35332524    -0.32700
C1810       C  0.35942978  0.93069915  0.32678159     0.36400
H1811       H  0.32393757  0.99737393  0.34755609     0.16700
O1812       O  0.35616223  0.99455505  0.39856976    -0.60200
H1813       H  0.39082857  0.90530635  0.35564545     0.16800
O1814       O  0.36041889  0.90939014  0.30357379    -0.60300
H1815       H  0.37866129  0.91516749  0.29097921     0.43800
H1816       H  0.33816503  0.98819559  0.41124440     0.43700
C1817       C  0.38998473  0.95572434  0.11596445    -0.05400
C1818       C  0.40059921  0.98383058  0.12790901    -0.32800
C1819       C  0.38227215  0.00050105  0.14843271     0.36500
C1820       C  0.35206981  0.99036488  0.15491078    -0.05700
C1821       C  0.34025127  0.96445524  0.13995463    -0.32700
C1822       C  0.35952493  0.94612941  0.12222295     0.36400
H1823       H  0.42444876  0.99073888  0.12447893     0.16700
O1824       O  0.39468709  0.02532392  0.16352253    -0.60200
H1825       H  0.31738618  0.95587636  0.14562717     0.16800
O1826       O  0.34981718  0.91692253  0.11547892    -0.60300
H1827       H  0.35690483  0.90389465  0.13297048     0.43800
H1828       H  0.40718199  0.01647054  0.18059067     0.43700
C1829       C  0.36361579  0.06195739  0.32733737    -0.05400
C1830       C  0.39525267  0.05471742  0.32631128    -0.32800
C1831       C  0.41541976  0.06545093  0.34900441     0.36500
C1832       C  0.40404802  0.08346385  0.37331043    -0.05700
C1833       C  0.37221886  0.08811976  0.37614490    -0.32700
C1834       C  0.35198230  0.07780320  0.35324911     0.36400
H1835       H  0.40473171  0.04192033  0.30715605     0.16700
O1836       O  0.44650443  0.05996166  0.34620730    -0.60200
H1837       H  0.36317959  0.10177067  0.39487455     0.16800
O1838       O  0.32104096  0.08397463  0.35618489    -0.60300
H1839       H  0.31853859  0.10557882  0.34906490     0.43800
H1840       H  0.44997232  0.03994082  0.35677935     0.43700
C1841       C  0.54418159  0.87034023  0.65016586    -0.05400
C1842       C  0.56262109  0.86621623  0.67700347    -0.32800
C1843       C  0.55514722  0.84467375  0.69988564     0.36500
C1844       C  0.52955330  0.82530642  0.69595553    -0.05700
C1845       C  0.51215297  0.82785386  0.66843948    -0.32700
C1846       C  0.51927033  0.84990563  0.64570293     0.36400
H1847       H  0.58340240  0.87974581  0.68033784     0.16700
O1848       O  0.57275036  0.84325869  0.72619348    -0.60200
H1849       H  0.49259948  0.81271429  0.66453434     0.16800
O1850       O  0.50282204  0.84988068  0.61866987    -0.60300
H1851       H  0.48259381  0.85924379  0.62378409     0.43800
H1852       H  0.56304071  0.85802359  0.74062504     0.43700
C1853       C  0.43367775  0.84503783  0.81064407    -0.05400
C1854       C  0.42946692  0.84479988  0.84289918    -0.32800
C1855       C  0.43624153  0.87070344  0.86106072     0.36500
C1856       C  0.44515124  0.89876682  0.84700589    -0.05700
C1857       C  0.45356792  0.89755753  0.81551732    -0.32700
C1858       C  0.44791269  0.87127755  0.79749118     0.36400
H1859       H  0.42096103  0.82425796  0.85437400     0.16700
O1860       O  0.43267866  0.86828232  0.89233323    -0.60200
H1861       H  0.46317808  0.91771469  0.80424825     0.16800
O1862       O  0.45587182  0.87192885  0.76690545    -0.60300
H1863       H  0.47765250  0.86480412  0.76630323     0.43800
H1864       H  0.45386700  0.86606069  0.90070874     0.43700
C1865       C  0.51020800  0.83981354  0.86162046    -0.05400
C1866       C  0.52039236  0.86785657  0.84889850    -0.32800
C1867       C  0.53417905  0.89018061  0.86754746     0.36500
C1868       C  0.53965557  0.88351369  0.89881449    -0.05700
C1869       C  0.52457887  0.85803314  0.91226253    -0.32700
C1870       C  0.51018391  0.83598976  0.89382931     0.36400
H1871       H  0.51895415  0.87186804  0.82424996     0.16700
O1872       O  0.54478868  0.91687529  0.85435304    -0.60200
H1873       H  0.52702338  0.85339442  0.93672757     0.16800
O1874       O  0.49863036  0.80972979  0.90730341    -0.60300
H1875       H  0.51636916  0.79534078  0.90858203     0.43800
H1876       H  0.52692279  0.93113089  0.85471297     0.43700
C1877       C  0.43400345  0.40064877  0.61106950    -0.05400
C1878       C  0.46380755  0.39093686  0.60298025    -0.32800
C1879       C  0.47911325  0.36887193  0.62096934     0.36500
C1880       C  0.46566705  0.35861438  0.64864751    -0.05700
C1881       C  0.43709837  0.37018605  0.65787118    -0.32700
C1882       C  0.42052470  0.38987986  0.63864380     0.36400
H1883       H  0.47356402  0.39766107  0.58093553     0.16700
O1884       O  0.50655792  0.35683948  0.61092949    -0.60200
H1885       H  0.42603886  0.36123999  0.67849355     0.16800
O1886       O  0.38945829  0.39368504  0.64385923    -0.60300
H1887       H  0.38732815  0.39927722  0.66590018     0.43800
H1888       H  0.50075170  0.34016157  0.59647904     0.43700
C1889       C  0.43353221  0.70160952  0.33880575    -0.05400
C1890       C  0.40474974  0.68810138  0.33409670    -0.32800
C1891       C  0.39692405  0.66083311  0.34981019     0.36500
C1892       C  0.41903095  0.64568642  0.36901896    -0.05700
C1893       C  0.44542976  0.66212466  0.37756703    -0.32700
C1894       C  0.45245902  0.69023450  0.36294735     0.36400
H1895       H  0.38928286  0.69728207  0.31666713     0.16700
O1896       O  0.36779874  0.64885106  0.34593812    -0.60200
H1897       H  0.46175553  0.65215225  0.39372011     0.16800
O1898       O  0.47951871  0.70493549  0.37025437    -0.60300
H1899       H  0.47365762  0.72087617  0.38544604     0.43800
H1900       H  0.36552990  0.64473860  0.32355132     0.43700
C1901       C  0.46804017  0.69888617  0.68042263    -0.05400
C1902       C  0.46483050  0.71425540  0.65207968    -0.32800
C1903       C  0.46625104  0.69802498  0.62416486     0.36500
C1904       C  0.46798194  0.66531851  0.62429848    -0.05700
C1905       C  0.47704553  0.65114524  0.65210520    -0.32700
C1906       C  0.47645600  0.66734130  0.67996793     0.36400
H1907       H  0.46155186  0.73898864  0.65150925     0.16700
O1908       O  0.46623851  0.71454835  0.59712506    -0.60200
H1909       H  0.48100563  0.62650854  0.65284858     0.16800
O1910       O  0.48273987  0.65154225  0.70672806    -0.60300
H1911       H  0.46260315  0.64289946  0.71348881     0.43800
H1912       H  0.48767866  0.71319983  0.58923297     0.43700
C1913       C  0.56086642  0.34462722  0.68303392    -0.05400
C1914       C  0.54154260  0.37054159  0.68624484    -0.32800
C1915       C  0.54000502  0.39361556  0.66374377     0.36500
C1916       C  0.55950673  0.39269760  0.63776107    -0.05700
C1917       C  0.57950407  0.36723445  0.63487135    -0.32700
C1918       C  0.57941085  0.34279875  0.65647374     0.36400
H1919       H  0.52722149  0.37318820  0.70650818     0.16700
O1920       O  0.52225109  0.41915333  0.66938394    -0.60200
H1921       H  0.59742531  0.36755025  0.61776223     0.16800
O1922       O  0.59871526  0.31819262  0.65217523    -0.60300
H1923       H  0.61890789  0.32467659  0.66087300     0.43800
H1924       H  0.50223455  0.41521468  0.65898065     0.43700
C1925       C  0.62930237  0.47239380  0.65108821    -0.05400
C1926       C  0.63817302  0.50309722  0.65519528    -0.32800
C1927       C  0.66228847  0.51039141  0.67578884     0.36500
C1928       C  0.67725926  0.48680795  0.69307646    -0.05700
C1929       C  0.66674469  0.45670470  0.69063270    -0.32700
C1930       C  0.64364862  0.44922245  0.66976988     0.36400
H1931       H  0.62764054  0.52118684  0.64153959     0.16700
O1932       O  0.67136785  0.54055681  0.67850471    -0.60200
H1933       H  0.67805051  0.43825957  0.70323421     0.16800
O1934       O  0.63702501  0.41849014  0.66582474    -0.60300
H1935       H  0.62608039  0.41187362  0.68484694     0.43800
H1936       H  0.68403558  0.54489431  0.65992231     0.43700
C1937       C  0.58645395  0.62735564  0.37873637    -0.05400
C1938       C  0.55430504  0.62645565  0.37564249    -0.32800
C1939       C  0.53964450  0.64686755  0.35532218     0.36500
C1940       C  0.55727628  0.66857363  0.33875580    -0.05700
C1941       C  0.58941605  0.66676091  0.33893048    -0.32700
C1942       C  0.60416672  0.64607869  0.35866802     0.36400
H1943       H  0.54056969  0.61155755  0.39036366     0.16700
O1944       O  0.50811373  0.64657024  0.35295465    -0.60200
H1945       H  0.60309391  0.68274192  0.32531782     0.16800
O1946       O  0.63590641  0.64506207  0.35923060    -0.60300
H1947       H  0.64272917  0.66514717  0.36768276     0.43800
H1948       H  0.50339549  0.63121278  0.33674943     0.43700
C1949       C  0.13888669  0.47789863  0.84170094    -0.05400
C1950       C  0.15358349  0.45463081  0.82413535    -0.32800
C1951       C  0.17938448  0.46051324  0.80580493     0.36500
C1952       C  0.19159772  0.49037175  0.80410757    -0.05700
C1953       C  0.17617133  0.51417642  0.82020166    -0.32700
C1954       C  0.15024746  0.50817250  0.83894305     0.36400
H1955       H  0.14592789  0.43090133  0.82592739     0.16700
O1956       O  0.19262048  0.43662431  0.79004175    -0.60200
H1957       H  0.18475331  0.53760879  0.81910495     0.16800
O1958       O  0.13722615  0.53189407  0.85500650    -0.60300
H1959       H  0.14967439  0.53362276  0.87414863     0.43800
H1960       H  0.20643970  0.42631152  0.80516903     0.43700
C1961       C  0.31480247  0.45769323  0.66434982    -0.05400
C1962       C  0.30216527  0.46352542  0.63495529    -0.32800
C1963       C  0.32062766  0.46414875  0.60852568     0.36500
C1964       C  0.35244868  0.45727592  0.61043420    -0.05700
C1965       C  0.36586249  0.45544274  0.63994889    -0.32700
C1966       C  0.34731884  0.45512697  0.66676396     0.36400
H1967       H  0.27760999  0.46760785  0.63224474     0.16700
O1968       O  0.30692686  0.46974588  0.58049824    -0.60200
H1969       H  0.39056477  0.45226861  0.64222317     0.16800
O1970       O  0.36135438  0.45285317  0.69506216    -0.60300
H1971       H  0.35895992  0.43098175  0.70135721     0.43800
H1972       H  0.30911102  0.49225911  0.57713251     0.43700
C1973       C  0.35267647  0.55046814  0.64741961    -0.05400
C1974       C  0.38227292  0.53889918  0.64138136    -0.32800
C1975       C  0.40167947  0.55415538  0.62057030     0.36500
C1976       C  0.39174265  0.58170986  0.60661720    -0.05700
C1977       C  0.36165333  0.59226491  0.61161875    -0.32700
C1978       C  0.34178579  0.57635208  0.63119342     0.36400
H1979       H  0.39081947  0.51900080  0.65391436     0.16700
O1980       O  0.43138785  0.54395559  0.61662308    -0.60200
H1981       H  0.35446419  0.61452217  0.60311198     0.16800
O1982       O  0.31294732  0.58818164  0.63684165    -0.60300
H1983       H  0.31587804  0.60310493  0.65383990     0.43800
H1984       H  0.43082075  0.53158868  0.59746071     0.43700
C1985       C  0.37459683  0.40239192  0.08887204    -0.05400
C1986       C  0.36332678  0.37785917  0.10686578    -0.32800
C1987       C  0.34075073  0.35799706  0.09546864     0.36500
C1988       C  0.32794648  0.36347969  0.06619000    -0.05700
C1989       C  0.33899938  0.38821656  0.04820501    -0.32700
C1990       C  0.36249290  0.40743238  0.05923081     0.36400
H1991       H  0.37084640  0.37510139  0.13054112     0.16700
O1992       O  0.33008831  0.33445086  0.11383219    -0.60200
H1993       H  0.32905800  0.39292049  0.02572400     0.16800
O1994       O  0.37123865  0.43266983  0.04213149    -0.60300
H1995       H  0.39365663  0.43003747  0.03813657     0.43800
H1996       H  0.31317881  0.34355591  0.12616134     0.43700
C1997       C  0.57014845  0.63789740  0.86873945    -0.05400
C1998       C  0.54131793  0.65098958  0.87483584    -0.32800
C1999       C  0.53223138  0.67815112  0.85969362     0.36500
C2000       C  0.55160400  0.69219970  0.83742211    -0.05700
C2001       C  0.58152737  0.68127764  0.83370638    -0.32700
C2002       C  0.59110960  0.65462930  0.84944169     0.36400
H2003       H  0.52528296  0.63948519  0.89024354     0.16700
O2004       O  0.50343549  0.68994161  0.86533861    -0.60200
H2005       H  0.59692036  0.69226622  0.81729513     0.16800
O2006       O  0.62129722  0.64555892  0.84634399    -0.60300
H2007       H  0.62386899  0.64000234  0.82431818     0.43800
H2008       H  0.50637485  0.70461423  0.88254650     0.43700
C2009       C  0.69315152  0.54533474  0.81959864    -0.05400
C2010       C  0.67402491  0.52111927  0.83082566    -0.32800
C2011       C  0.64984440  0.52644236  0.85183255     0.36500
C2012       C  0.64404006  0.55650064  0.86207309    -0.05700
C2013       C  0.66358189  0.58043674  0.85092081    -0.32700
C2014       C  0.68744313  0.57523061  0.82997866     0.36400
H2015       H  0.67774405  0.49765400  0.82335476     0.16700
O2016       O  0.63197855  0.50217802  0.86142228    -0.60200
H2017       H  0.66020514  0.60385329  0.85856767     0.16800
O2018       O  0.70533460  0.59957607  0.82042303    -0.60300
H2019       H  0.69408406  0.60866471  0.80261782     0.43800
H2020       H  0.64321005  0.49318666  0.87926741     0.43700
C2021       C  0.40665098  0.63838446  0.89780013    -0.05400
C2022       C  0.38645629  0.66081598  0.88543490    -0.32800
C2023       C  0.39567636  0.67999793  0.86136791     0.36500
C2024       C  0.42456868  0.67573343  0.84775128    -0.05700
C2025       C  0.44350617  0.65134606  0.85753952    -0.32700
C2026       C  0.43498630  0.63298146  0.88284996     0.36400
H2027       H  0.36358108  0.66425913  0.89486189     0.16700
O2028       O  0.37649428  0.70320874  0.85154151    -0.60200
H2029       H  0.46586023  0.64785269  0.84692597     0.16800
O2030       O  0.45549523  0.61167590  0.89418653    -0.60300
H2031       H  0.45592092  0.59494667  0.87869797     0.43800
H2032       H  0.37997977  0.72037025  0.86615943     0.43700
C2033       C  0.35425815  0.57770480  0.88598886    -0.05400
C2034       C  0.33133089  0.59894346  0.87612251    -0.32800
C2035       C  0.31994854  0.59904532  0.84587037     0.36500
C2036       C  0.33248746  0.57896439  0.82406635    -0.05700
C2037       C  0.35697565  0.55939822  0.83315749    -0.32700
C2038       C  0.36770224  0.55853732  0.86378031     0.36400
H2039       H  0.32168540  0.61550122  0.89200651     0.16700
O2040       O  0.29675830  0.61904224  0.83781017    -0.60200
H2041       H  0.36673491  0.54332422  0.81683555     0.16800
O2042       O  0.38993851  0.53758795  0.87210409    -0.60300
H2043       H  0.40952641  0.54575154  0.86343900     0.43800
H2044       H  0.27748247  0.60945250  0.84568736     0.43700
C2045       C  0.33237951  0.62895552  0.98244474    -0.05400
C2046       C  0.34382142  0.65453937  0.99857707    -0.32800
C2047       C  0.32976658  0.68343126  0.99495669     0.36500
C2048       C  0.30208930  0.68652923  0.97744459    -0.05700
C2049       C  0.28663014  0.65941315  0.96903035    -0.32700
C2050       C  0.30094668  0.63060404  0.97289803     0.36400
H2051       H  0.36677621  0.65364373  0.00859940     0.16700
O2052       O  0.34410859  0.70856220  0.00770425    -0.60200
H2053       H  0.26361961  0.66047731  0.95919526     0.16800
O2054       O  0.28377213  0.60459511  0.96766123    -0.60300
H2055       H  0.28067567  0.59506193  0.98826904     0.43800
H2056       H  0.36072638  0.71428349  0.99299658     0.43700
C2057       C  0.32965941  0.34331581  0.95414376    -0.05400
C2058       C  0.35217622  0.35334666  0.97563201    -0.32800
C2059       C  0.37515173  0.37439095  0.96764895     0.36500
C2060       C  0.37663171  0.38585733  0.93751082    -0.05700
C2061       C  0.35334128  0.37748852  0.91626088    -0.32700
C2062       C  0.32976018  0.35659817  0.92448056     0.36400
H2063       H  0.35279845  0.34414678  0.99887841     0.16700
O2064       O  0.39835940  0.38043972  0.98842202    -0.60200
H2065       H  0.35499904  0.38504564  0.89247707     0.16800
O2066       O  0.30798891  0.34840117  0.90300919    -0.60300
H2067       H  0.31687020  0.33041272  0.89217836     0.43800
H2068       H  0.39854517  0.40308901  0.99091705     0.43700
C2069       C  0.36166086  0.47157057  0.81752009    -0.05400
C2070       C  0.39390302  0.47335084  0.81398377    -0.32800
C2071       C  0.41373560  0.46247374  0.83704291     0.36500
C2072       C  0.40155743  0.44960325  0.86435826    -0.05700
C2073       C  0.36958877  0.45032200  0.86917617    -0.32700
C2074       C  0.34960585  0.46072545  0.84589778     0.36400
H2075       H  0.40389154  0.48219817  0.79282047     0.16700
O2076       O  0.44502558  0.46290597  0.83194897    -0.60200
H2077       H  0.35987026  0.44084699  0.89017072     0.16800
O2078       O  0.31835163  0.45969572  0.85106193    -0.60300
H2079       H  0.31209545  0.43822229  0.84632745     0.43800
H2080       H  0.45247136  0.48218320  0.84165113     0.43700
C2081       C  0.47027141  0.32324432  0.82018698    -0.05400
C2082       C  0.48804563  0.35042712  0.82379079    -0.32800
C2083       C  0.48787230  0.36700147  0.85125380     0.36500
C2084       C  0.46795228  0.35787269  0.87517329    -0.05700
C2085       C  0.45599278  0.32740003  0.87403289    -0.32700
C2086       C  0.45640003  0.31049860  0.84653361     0.36400
H2087       H  0.50133627  0.35989605  0.80482610     0.16700
O2088       O  0.50291930  0.39482301  0.85238925    -0.60200
H2089       H  0.44461973  0.31683493  0.89347182     0.16800
O2090       O  0.44224814  0.28223347  0.84553249    -0.60300
H2091       H  0.45875751  0.26718944  0.85055458     0.43800
H2092       H  0.52400699  0.38993320  0.85992560     0.43700
C2093       C  0.54291650  0.67040077  0.13198225    -0.05400
C2094       C  0.51250483  0.67558213  0.14184222    -0.32800
C2095       C  0.50670725  0.69480868  0.16734567     0.36500
C2096       C  0.53148419  0.70926150  0.18322185    -0.05700
C2097       C  0.56135001  0.70587832  0.17193332    -0.32700
C2098       C  0.56733707  0.68645815  0.14727146     0.36400
H2099       H  0.49338708  0.66402298  0.13066049     0.16700
O2100       O  0.47680398  0.69880193  0.17692259    -0.60200
H2101       H  0.58067886  0.71676242  0.18354050     0.16800
O2102       O  0.59768528  0.68249001  0.13882486    -0.60300
H2103       H  0.60690349  0.66900795  0.15488867     0.43800
H2104       H  0.46995365  0.71829110  0.16701995     0.43700
C2105       C  0.68736105  0.32395157  0.02812662    -0.05400
C2106       C  0.67614745  0.32457774  0.05821458    -0.32800
C2107       C  0.65434401  0.34652671  0.06708796     0.36500
C2108       C  0.64314198  0.36910033  0.04576806    -0.05700
C2109       C  0.65518343  0.36916281  0.01586746    -0.32700
C2110       C  0.67717147  0.34712021  0.00703333     0.36400
H2111       H  0.68356394  0.30740294  0.07485366     0.16700
O2112       O  0.64443032  0.34613728  0.09717727    -0.60200
H2113       H  0.64786786  0.38631915  0.99924761     0.16800
O2114       O  0.68829014  0.34840295  0.97744674    -0.60300
H2115       H  0.70748231  0.36086583  0.97873427     0.43800
H2116       H  0.63057995  0.32798438  0.09896589     0.43700
C2117       C  0.04411899  0.65516705  0.35530249    -0.05400
C2118       C  0.01368313  0.65509446  0.34438919    -0.32800
C2119       C  0.00552005  0.67268366  0.31829801     0.36500
C2120       C  0.02774555  0.69165919  0.30313047    -0.05700
C2121       C  0.05805735  0.69148275  0.31380752    -0.32700
C2122       C  0.06647527  0.67331569  0.33904339     0.36400
H2123       H  0.99633698  0.64086669  0.35542179     0.16700
O2124       O  0.97573308  0.67069111  0.30758755    -0.60200
H2125       H  0.07550933  0.70552960  0.30259463     0.16800
O2126       O  0.09698719  0.67358822  0.34787799    -0.60300
H2127       H  0.10816323  0.66222057  0.33157394     0.43800
H2128       H  0.97629265  0.65477383  0.29124714     0.43700
C2129       C  0.87948054  0.43991313  0.61908724    -0.05400
C2130       C  0.86248216  0.42055812  0.63900242    -0.32800
C2131       C  0.83800697  0.43213540  0.65599407     0.36500
C2132       C  0.83017084  0.46321031  0.65288102    -0.05700
C2133       C  0.84422441  0.48145749  0.63004218    -0.32700
C2134       C  0.86891235  0.46977477  0.61286619     0.36400
H2135       H  0.86965394  0.39696175  0.64295827     0.16700
O2136       O  0.82381517  0.41381399  0.67766852    -0.60200
H2137       H  0.83784524  0.50543950  0.62751167     0.16800
O2138       O  0.88449248  0.48854257  0.59265861    -0.60300
H2139       H  0.87344678  0.48629518  0.57273600     0.43800
H2140       H  0.83722214  0.41485011  0.69621298     0.43700
C2141       C  0.97622793  0.33347686  0.69877827    -0.05400
C2142       C  0.99939293  0.34558103  0.67898048    -0.32800
C2143       C  0.99216907  0.36489440  0.65387428     0.36500
C2144       C  0.96120251  0.37265555  0.64794132    -0.05700
C2145       C  0.93831138  0.36101193  0.66840641    -0.32700
C2146       C  0.94552016  0.34214018  0.69352653     0.36400
H2147       H  0.02346761  0.33977392  0.68260679     0.16700
O2148       O  0.01557645  0.37531614  0.63533668    -0.60200
H2149       H  0.91413227  0.36619140  0.66447201     0.16800
O2150       O  0.92215211  0.33192504  0.71233098    -0.60300
H2151       H  0.92004266  0.34797217  0.72841000     0.43800
H2152       H  0.01849568  0.35897727  0.61972252     0.43700
C2153       C  0.86366526  0.59100911  0.62386228    -0.05400
C2154       C  0.84456688  0.61487696  0.63567004    -0.32800
C2155       C  0.82661049  0.61068542  0.66224569     0.36500
C2156       C  0.82895794  0.58321014  0.67889424    -0.05700
C2157       C  0.85102118  0.56119006  0.66963204    -0.32700
C2158       C  0.86819816  0.56486034  0.64236360     0.36400
H2159       H  0.84191673  0.63637612  0.62331186     0.16700
O2160       O  0.80540954  0.63260611  0.67044624    -0.60200
H2161       H  0.85316732  0.53980222  0.68234760     0.16800
O2162       O  0.88762428  0.54186549  0.63298251    -0.60300
H2163       H  0.90607457  0.54347477  0.64648654     0.43800
H2164       H  0.78679162  0.62817767  0.65781138     0.43700
C2165       C  0.18869073  0.56284335  0.68661266    -0.05400
C2166       C  0.18323146  0.59210921  0.67466065    -0.32800
C2167       C  0.15929797  0.59691720  0.65344526     0.36500
C2168       C  0.13950840  0.57223316  0.64420740    -0.05700
C2169       C  0.14464442  0.54300183  0.65700701    -0.32700
C2170       C  0.16902497  0.53822428  0.67787997     0.36400
H2171       H  0.19851646  0.61101511  0.68051352     0.16700
O2172       O  0.15498915  0.62621457  0.64214997    -0.60200
H2173       H  0.12992959  0.52377395  0.65105429     0.16800
O2174       O  0.17408369  0.50903803  0.68905444    -0.60300
H2175       H  0.16284193  0.50810961  0.70896204     0.43800
H2176       H  0.17192631  0.62961359  0.62710457     0.43700
C2177       C  0.95813404  0.71611626  0.81940476    -0.05400
C2178       C  0.97683050  0.68941292  0.81906370    -0.32800
C2179       C  0.97872600  0.66971817  0.84473970     0.36500
C2180       C  0.96089122  0.67594305  0.87107404    -0.05700
C2181       C  0.94896393  0.70627605  0.87376091    -0.32700
C2182       C  0.94631707  0.72570065  0.84788179     0.36400
H2183       H  0.98897320  0.68277688  0.79831179     0.16700
O2184       O  0.99576606  0.64308778  0.84303904    -0.60200
H2185       H  0.93977057  0.71466382  0.89524286     0.16800
O2186       O  0.93135691  0.75336728  0.85060478    -0.60300
H2187       H  0.90911997  0.74852741  0.84775284     0.43800
H2188       H  0.98677932  0.63094902  0.82588737     0.43700
C2189       C  0.01672049  0.83349562  0.80909145    -0.05400
C2190       C  0.99758277  0.85661469  0.82176404    -0.32800
C2191       C  0.00505213  0.87144611  0.84949416     0.36500
C2192       C  0.03158974  0.86264248  0.86617693    -0.05700
C2193       C  0.05065991  0.83950151  0.85300632    -0.32700
C2194       C  0.04343099  0.82507267  0.82520071     0.36400
H2195       H  0.97689037  0.86395329  0.80971500     0.16700
O2196       O  0.98699377  0.89546809  0.85902048    -0.60200
H2197       H  0.07280673  0.83374549  0.86307992     0.16800
O2198       O  0.06282175  0.80279291  0.81409345    -0.60300
H2199       H  0.07860939  0.81409711  0.80188091     0.43800
H2200       H  0.99574673  0.91398068  0.84873669     0.43700
C2201       C  0.03912420  0.68973150  0.67768984    -0.05400
C2202       C  0.06026908  0.69564931  0.65390391    -0.32800
C2203       C  0.06830594  0.67236208  0.63274663     0.36500
C2204       C  0.05408153  0.64296501  0.63430515    -0.05700
C2205       C  0.03277636  0.63731402  0.65781613    -0.32700
C2206       C  0.02584845  0.65981478  0.67966902     0.36400
H2207       H  0.07068505  0.71826588  0.65172341     0.16700
O2208       O  0.09207732  0.67757687  0.61248089    -0.60200
H2209       H  0.02334338  0.61433666  0.66084900     0.16800
O2210       O  0.00730547  0.65169383  0.70408833    -0.60300
H2211       H  0.98633344  0.64877489  0.69529404     0.43800
H2212       H  0.08579298  0.69572480  0.59997111     0.43700
C2213       C  0.94586076  0.68796718  0.64827913    -0.05400
C2214       C  0.93376094  0.66016085  0.65970091    -0.32800
C2215       C  0.93405406  0.63380620  0.64144138     0.36500
C2216       C  0.94406540  0.63600297  0.61073554    -0.05700
C2217       C  0.96270358  0.66107856  0.60232036    -0.32700
C2218       C  0.96280325  0.68753819  0.62038296     0.36400
H2219       H  0.92314422  0.65901926  0.68228617     0.16700
O2220       O  0.92128082  0.60720843  0.65263351    -0.60200
H2221       H  0.97221134  0.66240258  0.57923258     0.16800
O2222       O  0.97810217  0.71314552  0.60965297    -0.60300
H2223       H  0.96358401  0.72314262  0.59497580     0.43800
H2224       H  0.93909732  0.59433516  0.65904421     0.43700
C2225       C  0.65720403  0.14498337  0.54661602    -0.05400
C2226       C  0.65498223  0.15830086  0.51721244    -0.32800
C2227       C  0.67155338  0.18531935  0.50992629     0.36500
C2228       C  0.69122587  0.19943003  0.53212756    -0.05700
C2229       C  0.69445913  0.18534131  0.56087324    -0.32700
C2230       C  0.67782572  0.15881435  0.56834197     0.36400
H2231       H  0.63898801  0.14905612  0.50042024     0.16700
O2232       O  0.66732911  0.19826656  0.48131843    -0.60200
H2233       H  0.70929708  0.19544745  0.57827441     0.16800
O2234       O  0.67956791  0.14839343  0.59826762    -0.60300
H2235       H  0.70039229  0.13906900  0.60040032     0.43800
H2236       H  0.64939338  0.21227628  0.48360417     0.43700
C2237       C  0.67692202  0.34306590  0.43907014    -0.05400
C2238       C  0.66491967  0.36648689  0.45805248    -0.32800
C2239       C  0.63618692  0.38022984  0.45192467     0.36500
C2240       C  0.61917100  0.37126637  0.42587214    -0.05700
C2241       C  0.63233039  0.34887980  0.40599524    -0.32700
C2242       C  0.66023441  0.33417028  0.41301392     0.36400
H2243       H  0.67741909  0.37340849  0.47850830     0.16700
O2244       O  0.62435711  0.40112988  0.47234664    -0.60200
H2245       H  0.62106624  0.34243428  0.38468729     0.16800
O2246       O  0.67139488  0.31183633  0.39377036    -0.60300
H2247       H  0.66042680  0.29267624  0.39990136     0.43800
H2248       H  0.63710040  0.41997633  0.46973057     0.43700
C2249       C  0.83019373  0.32319295  0.56984290    -0.05400
C2250       C  0.82609245  0.35518979  0.57264957    -0.32800
C2251       C  0.85163961  0.37576002  0.57257245     0.36500
C2252       C  0.88211765  0.36431038  0.56964855    -0.05700
C2253       C  0.88567771  0.33259806  0.56425191    -0.32700
C2254       C  0.86053656  0.31227436  0.56464252     0.36400
H2255       H  0.80291099  0.36441829  0.57430879     0.16700
O2256       O  0.84660929  0.40697470  0.57361642    -0.60200
H2257       H  0.90861312  0.32309352  0.56119533     0.16800
O2258       O  0.86623057  0.28146491  0.56065581    -0.60300
H2259       H  0.86888171  0.27880650  0.53810423     0.43800
H2260       H  0.82822745  0.41050622  0.58677304     0.43700
C2261       C  0.67539893  0.36773311  0.54416086    -0.05400
C2262       C  0.64621675  0.35493037  0.55111975    -0.32800
C2263       C  0.62101441  0.37397417  0.55822692     0.36500
C2264       C  0.62555440  0.40593693  0.56053983    -0.05700
C2265       C  0.65270313  0.41864394  0.54805661    -0.32700
C2266       C  0.67760775  0.39995868  0.54023305     0.36400
H2267       H  0.64304948  0.33017933  0.55169876     0.16700
O2268       O  0.59272087  0.36101659  0.56409337    -0.60200
H2269       H  0.65591381  0.44341819  0.54765485     0.16800
O2270       O  0.70429943  0.41368517  0.52997501    -0.60300
H2271       H  0.71551568  0.42004211  0.54887405     0.43800
H2272       H  0.58131379  0.36232127  0.54428871     0.43700
C2273       C  0.84872907  0.36098697  0.47470853    -0.05400
C2274       C  0.86168082  0.35073512  0.44713131    -0.32800
C2275       C  0.87936779  0.37071298  0.42924175     0.36500
C2276       C  0.88783046  0.39976112  0.44092352    -0.05700
C2277       C  0.87731988  0.40878423  0.47000028    -0.32700
C2278       C  0.85637321  0.39027790  0.48605193     0.36400
H2279       H  0.85458837  0.32885511  0.43742437     0.16700
O2280       O  0.88429319  0.36341418  0.39892839    -0.60200
H2281       H  0.88195027  0.43189232  0.47820959     0.16800
O2282       O  0.84157323  0.40199978  0.51123641    -0.60300
H2283       H  0.82442188  0.41466866  0.50282527     0.43800
H2284       H  0.86602146  0.37144852  0.38757914     0.43700
C2285       C  0.18062177  0.95617263  0.67116027    -0.05400
C2286       C  0.15736980  0.93382006  0.67404991    -0.32800
C2287       C  0.13427720  0.93102773  0.65134770     0.36500
C2288       C  0.13213359  0.95278777  0.62693172    -0.05700
C2289       C  0.15370154  0.97672508  0.62585515    -0.32700
C2290       C  0.17862820  0.97748873  0.64630393     0.36400
H2291       H  0.15843006  0.91702347  0.69258129     0.16700
O2292       O  0.11632577  0.90499694  0.65131611    -0.60200
H2293       H  0.15366887  0.99253473  0.60640395     0.16800
O2294       O  0.20153937  0.99866134  0.64079523    -0.60300
H2295       H  0.21548873  0.98876750  0.62567061     0.43800
H2296       H  0.12874154  0.88917583  0.64054354     0.43700
C2297       C  0.02009628  0.84968646  0.64367859    -0.05400
C2298       C  0.03115908  0.87750575  0.65577246    -0.32800
C2299       C  0.04689269  0.89852442  0.63682136     0.36500
C2300       C  0.05340902  0.89058528  0.60605824    -0.05700
C2301       C  0.03926198  0.86436216  0.59338395    -0.32700
C2302       C  0.02270424  0.84396721  0.61194386     0.36400
H2303       H  0.02818814  0.88259685  0.68002338     0.16700
O2304       O  0.05769879  0.92544110  0.64923711    -0.60200
H2305       H  0.04292413  0.85851522  0.56939595     0.16800
O2306       O  0.01116331  0.81739876  0.59928688    -0.60300
H2307       H  0.02781859  0.80188830  0.60182302     0.43800
H2308       H  0.03990264  0.93978193  0.64854217     0.43700
C2309       C  0.14977863  0.05653829  0.66203681    -0.05400
C2310       C  0.12175827  0.04254365  0.65343721    -0.32800
C2311       C  0.10190108  0.05704452  0.63243453     0.36500
C2312       C  0.10958941  0.08624769  0.62069919    -0.05700
C2313       C  0.13751490  0.10015404  0.62938162    -0.32700
C2314       C  0.15809242  0.08507022  0.64900355     0.36400
H2315       H  0.11500545  0.02063875  0.66348263     0.16700
O2316       O  0.07390834  0.04382705  0.62560752    -0.60200
H2317       H  0.14262749  0.12357836  0.62235339     0.16800
O2318       O  0.18525934  0.09937594  0.65694367    -0.60300
H2319       H  0.17997205  0.11292371  0.67449649     0.43800
H2320       H  0.07810307  0.02977182  0.60815470     0.43700
C2321       C  0.03201257  0.20353320  0.68512112    -0.05400
C2322       C  0.01939728  0.17352724  0.68397694    -0.32800
C2323       C  0.01919177  0.15650744  0.65648215     0.36500
C2324       C  0.03250146  0.16904257  0.62948929    -0.05700
C2325       C  0.03871470  0.20112285  0.62951467    -0.32700
C2326       C  0.03993779  0.21784496  0.65709235     0.36400
H2327       H  0.01083382  0.16250548  0.70474492     0.16700
O2328       O  0.00820431  0.12678392  0.65666768    -0.60200
H2329       H  0.04411798  0.21357446  0.60864581     0.16800
O2330       O  0.04873316  0.24821066  0.65620784    -0.60300
H2331       H  0.07166733  0.24790001  0.65620523     0.43800
H2332       H  0.02188802  0.11504817  0.67082858     0.43700
C2333       C  0.19744995  0.05096181  0.31899252    -0.05400
C2334       C  0.18230248  0.02607096  0.33403628    -0.32800
C2335       C  0.15566597  0.03032622  0.35201236     0.36500
C2336       C  0.14340919  0.06003525  0.35559700    -0.05700
C2337       C  0.15881810  0.08483891  0.34057325    -0.32700
C2338       C  0.18541766  0.08062279  0.32283475     0.36400
H2339       H  0.19094160  0.00279885  0.33176560     0.16700
O2340       O  0.14218776  0.00520027  0.36567611    -0.60200
H2341       H  0.14999727  0.10808881  0.34268628     0.16800
O2342       O  0.19899701  0.10568365  0.30900380    -0.60300
H2343       H  0.21238837  0.11488785  0.32512285     0.43800
H2344       H  0.12815239  0.99658055  0.34979477     0.43700
C2345       C  0.91475760  0.90270029  0.63858611    -0.05400
C2346       C  0.93580824  0.90093431  0.66324270    -0.32800
C2347       C  0.93388420  0.87706096  0.68523672     0.36500
C2348       C  0.91107224  0.85388378  0.68243099    -0.05700
C2349       C  0.89023624  0.85553605  0.65777222    -0.32700
C2350       C  0.89099554  0.88028918  0.63699048     0.36400
H2351       H  0.95276583  0.91906272  0.66638103     0.16700
O2352       O  0.95432721  0.87671714  0.70945831    -0.60200
H2353       H  0.87253348  0.83802892  0.65520876     0.16800
O2354       O  0.86688039  0.88364909  0.61674273    -0.60300
H2355       H  0.85002075  0.89319303  0.62881844     0.43800
H2356       H  0.97263934  0.86547030  0.70187824     0.43700
C2357       C  0.84435019  0.98429093  0.63277072    -0.05400
C2358       C  0.82008054  0.96273881  0.63842207    -0.32800
C2359       C  0.79886016  0.96625467  0.66232950     0.36500
C2360       C  0.80119600  0.99159403  0.68188229    -0.05700
C2361       C  0.82507082  0.01333622  0.67654879    -0.32700
C2362       C  0.84669964  0.00958938  0.65276036     0.36400
H2363       H  0.81850345  0.94150593  0.62559390     0.16700
O2364       O  0.77634122  0.94435889  0.66662783    -0.60200
H2365       H  0.82746506  0.03321678  0.69137547     0.16800
O2366       O  0.87069904  0.03009232  0.65024064    -0.60300
H2367       H  0.88702417  0.02203116  0.66418559     0.43800
H2368       H  0.75918381  0.95052662  0.65271256     0.43700
C2369       C  0.84899307  0.14795196  0.44822004    -0.05400
C2370       C  0.84594870  0.15728496  0.47883155    -0.32800
C2371       C  0.82667703  0.18204253  0.48626401     0.36500
C2372       C  0.80979667  0.19786866  0.46292848    -0.05700
C2373       C  0.81118303  0.18737832  0.43276087    -0.32700
C2374       C  0.83088165  0.16320202  0.42512542     0.36400
H2375       H  0.85921946  0.14632710  0.49694607     0.16700
O2376       O  0.82530896  0.19126516  0.51644851    -0.60200
H2377       H  0.79850226  0.19915828  0.41465090     0.16800
O2378       O  0.83294358  0.15508489  0.39460424    -0.60300
H2379       H  0.84574494  0.17130230  0.38469597     0.43800
H2380       H  0.80765807  0.17974971  0.52544982     0.43700
C2381       C  0.96127502  0.81988601  0.31693560    -0.05400
C2382       C  0.93134396  0.82757571  0.32536382    -0.32800
C2383       C  0.92608872  0.84857277  0.34897809     0.36500
C2384       C  0.95113946  0.86165348  0.36612289    -0.05700
C2385       C  0.98127251  0.85268488  0.35858352    -0.32700
C2386       C  0.98643469  0.83218872  0.33401071     0.36400
H2387       H  0.91185626  0.81874289  0.31235301     0.16700
O2388       O  0.89597525  0.85645027  0.35507768    -0.60200
H2389       H  0.00080579  0.86199207  0.37108447     0.16800
O2390       O  0.01626437  0.82478859  0.32642501    -0.60300
H2391       H  0.02001144  0.80442149  0.33619927     0.43800
H2392       H  0.88977703  0.87068065  0.33820343     0.43700
C2393       C  0.69538095  0.69151824  0.46996210    -0.05400
C2394       C  0.70117739  0.67495149  0.44321231    -0.32800
C2395       C  0.68567920  0.64746325  0.43728404     0.36500
C2396       C  0.66375014  0.63517702  0.45874307    -0.05700
C2397       C  0.66008186  0.65038713  0.48694242    -0.32700
C2398       C  0.67563425  0.67834519  0.49263732     0.36400
H2399       H  0.71630310  0.68432779  0.42559812     0.16700
O2400       O  0.68911825  0.63506308  0.40842017    -0.60200
H2401       H  0.64355540  0.64198521  0.50369960     0.16800
O2402       O  0.67095793  0.69279515  0.52029666    -0.60300
H2403       H  0.65075262  0.70337903  0.51816370     0.43800
H2404       H  0.70999922  0.62562285  0.40833727     0.43700
C2405       C  0.81749944  0.70835677  0.53070853    -0.05400
C2406       C  0.82676717  0.68849873  0.50642799    -0.32800
C2407       C  0.84729294  0.66389612  0.51139650     0.36500
C2408       C  0.85922143  0.65874149  0.54099534    -0.05700
C2409       C  0.84926547  0.67842732  0.56517631    -0.32700
C2410       C  0.82905687  0.70285631  0.56028884     0.36400
H2411       H  0.81804404  0.69190707  0.48323755     0.16700
O2412       O  0.85484286  0.64503429  0.48735490    -0.60200
H2413       H  0.85737742  0.67478682  0.58853954     0.16800
O2414       O  0.82076982  0.72098996  0.58472449    -0.60300
H2415       H  0.83735764  0.73672394  0.58635560     0.43800
H2416       H  0.83886967  0.62860647  0.48747036     0.43700
C2417       C  0.67759997  0.83985401  0.56670559    -0.05400
C2418       C  0.65142251  0.84191271  0.54730729    -0.32800
C2419       C  0.62790548  0.86328096  0.55249485     0.36500
C2420       C  0.62944134  0.88291229  0.57800986    -0.05700
C2421       C  0.65590951  0.88168288  0.59712305    -0.32700
C2422       C  0.68026266  0.86093328  0.59113818     0.36400
H2423       H  0.64866741  0.82628277  0.52814080     0.16700
O2424       O  0.60189295  0.86243677  0.53433867    -0.60200
H2425       H  0.65677757  0.89539672  0.61790086     0.16800
O2426       O  0.70514223  0.85978376  0.61072570    -0.60300
H2427       H  0.72014563  0.87487976  0.60222117     0.43800
H2428       H  0.60173590  0.88227075  0.52291420     0.43700
C2429       C  0.82173271  0.83750858  0.43578628    -0.05400
C2430       C  0.82382544  0.86212026  0.41503364    -0.32800
C2431       C  0.84956014  0.88194647  0.41522288     0.36500
C2432       C  0.87288577  0.87869594  0.43806085    -0.05700
C2433       C  0.86967705  0.85492182  0.45990632    -0.32700
C2434       C  0.84496802  0.83399603  0.45840124     0.36400
H2435       H  0.80624849  0.86493509  0.39740678     0.16700
O2436       O  0.85390631  0.90123901  0.39045985    -0.60200
H2437       H  0.88791012  0.85092526  0.47662446     0.16800
O2438       O  0.84351292  0.81042859  0.47955268    -0.60300
H2439       H  0.85677527  0.79394063  0.47107535     0.43800
H2440       H  0.83421218  0.91252536  0.38745919     0.43700
C2441       C  0.83083963  0.87442058  0.52454992    -0.05400
C2442       C  0.85699860  0.86319706  0.54036499    -0.32800
C2443       C  0.87995566  0.88348514  0.55067169     0.36500
C2444       C  0.87533523  0.91531882  0.54732043    -0.05700
C2445       C  0.85322453  0.92565051  0.52595846    -0.32700
C2446       C  0.83081952  0.90546649  0.51466751     0.36400
H2447       H  0.85893322  0.83896298  0.54609971     0.16700
O2448       O  0.90442828  0.87225076  0.56735693    -0.60200
H2449       H  0.85065748  0.95009906  0.52145869     0.16800
O2450       O  0.80784766  0.91692934  0.49604529    -0.60300
H2451       H  0.79272050  0.92644720  0.51023837     0.43800
H2452       H  0.92149066  0.87025573  0.55226764     0.43700
C2453       C  0.65521976  0.85956923  0.45869581    -0.05400
C2454       C  0.64640478  0.88729471  0.47259634    -0.32800
C2455       C  0.62517426  0.90674102  0.45802177     0.36500
C2456       C  0.61362981  0.89889462  0.42883481    -0.05700
C2457       C  0.62232202  0.87102756  0.41519484    -0.32700
C2458       C  0.64224359  0.85090903  0.43036900     0.36400
H2459       H  0.65682770  0.89431859  0.49419981     0.16700
O2460       O  0.61840446  0.93473296  0.47085456    -0.60200
H2461       H  0.61528707  0.86575165  0.39185205     0.16800
O2462       O  0.65097458  0.82413341  0.41614825    -0.60300
H2463       H  0.66869381  0.82990480  0.40282909     0.43800
H2464       H  0.59911089  0.93130145  0.48268093     0.43700
C2465       C  0.62390293  0.97195021  0.34436031    -0.05400
C2466       C  0.63171598  0.95029972  0.32104475    -0.32800
C2467       C  0.65958026  0.95163273  0.30477069     0.36500
C2468       C  0.68116376  0.97471518  0.31143344    -0.05700
C2469       C  0.67317620  0.99721168  0.33351552    -0.32700
C2470       C  0.64531266  0.99573693  0.35010462     0.36400
H2471       H  0.61756395  0.93014213  0.31707264     0.16700
O2472       O  0.66602142  0.92916797  0.28360608    -0.60200
H2473       H  0.68909002  0.01575205  0.33880542     0.16800
O2474       O  0.64026298  0.01672263  0.37302412    -0.60300
H2475       H  0.65074841  0.00811291  0.39151155     0.43800
H2476       H  0.67601945  0.91236501  0.29558175     0.43700
C2477       C  0.64000043  0.05047209  0.14617007    -0.05400
C2478       C  0.65796910  0.07396251  0.16019157    -0.32800
C2479       C  0.68226536  0.06759379  0.18017181     0.36500
C2480       C  0.68978437  0.03698814  0.18691623    -0.05700
C2481       C  0.67164806  0.01320287  0.17365058    -0.32700
C2482       C  0.64690380  0.01971605  0.15356113     0.36400
H2483       H  0.65358606  0.09795344  0.15484808     0.16700
O2484       O  0.69866609  0.09164583  0.19254615    -0.60200
H2485       H  0.67687933  0.98926306  0.17843923     0.16800
O2486       O  0.63076404  0.99586353  0.14068134    -0.60300
H2487       H  0.61420733  0.99092194  0.15571482     0.43800
H2488       H  0.71432324  0.09716002  0.17675793     0.43700
C2489       C  0.81792672  0.06822519  0.32270917    -0.05400
C2490       C  0.84956988  0.07500662  0.31846741    -0.32800
C2491       C  0.87045568  0.07463238  0.34363152     0.36500
C2492       C  0.85983684  0.06759892  0.37365317    -0.05700
C2493       C  0.82942844  0.05665015  0.37670585    -0.32700
C2494       C  0.80835910  0.05839875  0.35240627     0.36400
H2495       H  0.85810832  0.08088447  0.29572085     0.16700
O2496       O  0.90077528  0.08219492  0.33866005    -0.60200
H2497       H  0.82089464  0.04980259  0.39922208     0.16800
O2498       O  0.77826535  0.05027398  0.35827465    -0.60300
H2499       H  0.76803833  0.06957814  0.36485670     0.43800
H2500       H  0.91165780  0.06222184  0.33666387     0.43700
C2501       C  0.82347917  0.95198060  0.17786095    -0.05400
C2502       C  0.80958810  0.96731259  0.15278489    -0.32800
C2503       C  0.82624786  0.97388427  0.12581320     0.36500
C2504       C  0.85700092  0.96334552  0.12242398    -0.05700
C2505       C  0.87200051  0.95202258  0.14893155    -0.32700
C2506       C  0.85553351  0.94595248  0.17626442     0.36400
H2507       H  0.78570203  0.97462326  0.15414721     0.16700
O2508       O  0.81169715  0.98934330  0.10225961    -0.60200
H2509       H  0.89623676  0.94622068  0.14813839     0.16800
O2510       O  0.87098349  0.93354542  0.20100531    -0.60300
H2511       H  0.86859299  0.91092498  0.19888588     0.43800
H2512       H  0.82033121  0.01051255  0.10273684     0.43700
C2513       C  0.89818193  0.96068722  0.38410600    -0.05400
C2514       C  0.91057435  0.97481651  0.35771271    -0.32800
C2515       C  0.89113784  0.98896257  0.33636352     0.36500
C2516       C  0.85905568  0.98944433  0.34192703    -0.05700
C2517       C  0.84816187  0.98177359  0.37154202    -0.32700
C2518       C  0.86794339  0.96811430  0.39310295     0.36400
H2519       H  0.93464136  0.97142706  0.35171458     0.16700
O2520       O  0.90341641  0.00008708  0.30932500    -0.60200
H2521       H  0.82385841  0.98382426  0.37712926     0.16800
O2522       O  0.85621285  0.95819944  0.42077123    -0.60300
H2523       H  0.85945821  0.97563786  0.43509028     0.43800
H2524       H  0.90804991  0.98164310  0.29672892     0.43700
C2525       C  0.84953561  0.04126423  0.16356189    -0.05400
C2526       C  0.87903019  0.02874975  0.15851923    -0.32800
C2527       C  0.89830640  0.04085300  0.13566703     0.36500
C2528       C  0.88859973  0.06654380  0.11835402    -0.05700
C2529       C  0.85802268  0.07654375  0.12084630    -0.32700
C2530       C  0.83830408  0.06389860  0.14291613     0.36400
H2531       H  0.88807114  0.01098915  0.17363686     0.16700
O2532       O  0.92819153  0.03057865  0.13367881    -0.60200
H2533       H  0.85051940  0.09706436  0.10904970     0.16800
O2534       O  0.80905331  0.07576963  0.14564615    -0.60300
H2535       H  0.81157059  0.09523910  0.15727584     0.43800
H2536       H  0.92869620  0.01765288  0.11490281     0.43700
C2537       C  0.02953323  0.32032093  0.17784044    -0.05400
C2538       C  0.01566556  0.34976756  0.17714247    -0.32800
C2539       C  0.01183566  0.36605344  0.14936493     0.36500
C2540       C  0.02418449  0.35401855  0.12181839    -0.05700
C2541       C  0.03076913  0.32205689  0.12175084    -0.32700
C2542       C  0.03461075  0.30561954  0.14946302     0.36400
H2543       H  0.00896500  0.36100627  0.19834208     0.16700
O2544       O  0.00166543  0.39592722  0.15039757    -0.60200
H2545       H  0.03519207  0.30981446  0.10065596     0.16800
O2546       O  0.04444656  0.27563683  0.14838500    -0.60300
H2547       H  0.02526188  0.26308254  0.14802273     0.43800
H2548       H  0.97926837  0.39474792  0.14565685     0.43700
C2549       C  0.96919930  0.19889677  0.19248752    -0.05400
C2550       C  0.99090987  0.19174813  0.16934171    -0.32800
C2551       C  0.98507658  0.16921145  0.14713277     0.36500
C2552       C  0.95729263  0.15231929  0.14797541    -0.05700
C2553       C  0.93510798  0.16046146  0.17070588    -0.32700
C2554       C  0.94100014  0.18307788  0.19289547     0.36400
H2555       H  0.01276778  0.20395262  0.16826976     0.16700
O2556       O  0.00634546  0.16495072  0.12420353    -0.60200
H2557       H  0.91243896  0.14984901  0.17080437     0.16800
O2558       O  0.91912667  0.18930278  0.21485340    -0.60300
H2559       H  0.92350655  0.17477360  0.23203927     0.43800
H2560       H  0.00051979  0.17978764  0.10772571     0.43700
C2561       C  0.06425742  0.18158990  0.31477218    -0.05400
C2562       C  0.05569007  0.15387227  0.30039695    -0.32800
C2563       C  0.05158935  0.12666906  0.31773157     0.36500
C2564       C  0.05599317  0.12686504  0.35005205    -0.05700
C2565       C  0.05911984  0.15531735  0.36455731    -0.32700
C2566       C  0.06469831  0.18226368  0.34744777     0.36400
H2567       H  0.05285721  0.15299635  0.27559230     0.16700
O2568       O  0.04383362  0.09974326  0.30306088    -0.60200
H2569       H  0.05912127  0.15639123  0.38940613     0.16800
O2570       O  0.07204128  0.20875532  0.36301891    -0.60300
H2571       H  0.05272109  0.21531847  0.37328094     0.43800
H2572       H  0.06038870  0.09595952  0.28772852     0.43700
C2573       C  0.94871140  0.34849801  0.31873569    -0.05400
C2574       C  0.94715985  0.34548344  0.35096946    -0.32800
C2575       C  0.94483871  0.37155701  0.36998511     0.36500
C2576       C  0.94206434  0.40121512  0.35672035    -0.05700
C2577       C  0.94596457  0.40405658  0.32456391    -0.32700
C2578       C  0.94906944  0.37823265  0.30579589     0.36400
H2579       H  0.94996019  0.32299463  0.36156666     0.16700
O2580       O  0.94537220  0.36750627  0.40133361    -0.60200
H2581       H  0.94588274  0.42655883  0.31365012     0.16800
O2582       O  0.95316327  0.38225278  0.27464487    -0.60300
H2583       H  0.97532197  0.38763530  0.27207063     0.43800
H2584       H  0.96731602  0.37023688  0.40745936     0.43700
C2585       C  0.96244718  0.18293179  0.34520836    -0.05400
C2586       C  0.97842500  0.16778161  0.36919489    -0.32800
C2587       C  0.96484901  0.14310119  0.38519985     0.36500
C2588       C  0.93467673  0.13375959  0.37775649    -0.05700
C2589       C  0.91968059  0.14725795  0.35245319    -0.32700
C2590       C  0.93320591  0.17146127  0.33615415     0.36400
H2591       H  0.00082548  0.17599979  0.37659664     0.16700
O2592       O  0.97986084  0.13052167  0.41011107    -0.60200
H2593       H  0.89593113  0.14115373  0.34725043     0.16800
O2594       O  0.91666358  0.18475569  0.31258016    -0.60300
H2595       H  0.90282531  0.19985856  0.32265384     0.43800
H2596       H  0.98964124  0.11148617  0.40219926     0.43700
C2597       C  0.06543889  0.34169134  0.35248639    -0.05400
C2598       C  0.09688160  0.34865460  0.35199237    -0.32800
C2599       C  0.10911773  0.36975926  0.37282016     0.36500
C2600       C  0.08946810  0.38554536  0.39347995    -0.05700
C2601       C  0.05762326  0.38004979  0.39251701    -0.32700
C2602       C  0.04563865  0.35774313  0.37250252     0.36400
H2603       H  0.11223551  0.33664380  0.33642590     0.16700
O2604       O  0.14047481  0.37469532  0.37304515    -0.60200
H2605       H  0.04234335  0.39178615  0.40834937     0.16800
O2606       O  0.01453854  0.35191467  0.37238895    -0.60300
H2607       H  0.01138140  0.33588301  0.38844654     0.43800
H2608       H  0.14966566  0.35551584  0.38104156     0.43700
C2609       C  0.82248536  0.54068121  0.18836831    -0.05400
C2610       C  0.82828532  0.52248645  0.16213110    -0.32800
C2611       C  0.85670913  0.52382628  0.14660393     0.36500
C2612       C  0.88053999  0.54340967  0.15723447    -0.05700
C2613       C  0.87519422  0.55923549  0.18535247    -0.32700
C2614       C  0.84684826  0.55810029  0.20056753     0.36400
H2615       H  0.81025452  0.50800245  0.15262263     0.16700
O2616       O  0.85978814  0.50817987  0.11938304    -0.60200
H2617       H  0.89136617  0.57564206  0.19462015     0.16800
O2618       O  0.84301604  0.57536328  0.22670286    -0.60300
H2619       H  0.83710921  0.59618980  0.21924697     0.43800
H2620       H  0.84944864  0.52119519  0.10358307     0.43700
C2621       C  0.80656636  0.48252682  0.31883390    -0.05400
C2622       C  0.82368199  0.50721648  0.33189034    -0.32800
C2623       C  0.84834196  0.50213633  0.35244656     0.36500
C2624       C  0.85645991  0.47188549  0.36054675    -0.05700
C2625       C  0.83880511  0.44740292  0.34774890    -0.32700
C2626       C  0.81412370  0.45244684  0.32765566     0.36400
H2627       H  0.81825853  0.53085228  0.32592647     0.16700
O2628       O  0.86438742  0.52687469  0.36370255    -0.60200
H2629       H  0.84464174  0.42368840  0.35306505     0.16800
O2630       O  0.79811153  0.42764499  0.31635518    -0.60300
H2631       H  0.78224492  0.42288921  0.33220420     0.43800
H2632       H  0.88017618  0.53165381  0.34781509     0.43700
C2633       C  0.67600079  0.44900174  0.17506962    -0.05400
C2634       C  0.64997586  0.43030308  0.18056048    -0.32800
C2635       C  0.62745687  0.42564621  0.15735773     0.36500
C2636       C  0.62911987  0.44178901  0.12892122    -0.05700
C2637       C  0.65371170  0.46238057  0.12467320    -0.32700
C2638       C  0.67755493  0.46487109  0.14638322     0.36400
H2639       H  0.64799348  0.41781723  0.20215826     0.16700
O2640       O  0.60538859  0.40345571  0.16190379    -0.60200
H2641       H  0.65645610  0.47388645  0.10258508     0.16800
O2642       O  0.70282178  0.48234781  0.13858568    -0.60300
H2643       H  0.71624588  0.46850975  0.12637933     0.43800
H2644       H  0.61423245  0.38432482  0.15318940     0.43700
C2645       C  0.68429511  0.57240138  0.32172448    -0.05400
C2646       C  0.65182331  0.57395936  0.32229845    -0.32800
C2647       C  0.63511667  0.56910640  0.34966589     0.36500
C2648       C  0.65077808  0.56342115  0.37787974    -0.05700
C2649       C  0.68286224  0.55766559  0.37609029    -0.32700
C2650       C  0.69961738  0.56313694  0.34898118     0.36400
H2651       H  0.63911485  0.57903993  0.30133928     0.16700
O2652       O  0.60357219  0.57075980  0.34818761    -0.60200
H2653       H  0.69565495  0.55040346  0.39630548     0.16800
O2654       O  0.73103568  0.55897688  0.34954886    -0.60300
H2655       H  0.73968074  0.57895224  0.35654832     0.43800
H2656       H  0.59637127  0.54909480  0.34747676     0.43700
C2657       C  0.64528226  0.54485675  0.15609443    -0.05400
C2658       C  0.61347689  0.54425126  0.16236166    -0.32800
C2659       C  0.59278504  0.55975572  0.14321490     0.36500
C2660       C  0.60387391  0.57587162  0.11725753    -0.05700
C2661       C  0.63445559  0.57133835  0.10774163    -0.32700
C2662       C  0.65542931  0.55626145  0.12726336     0.36400
H2663       H  0.60474598  0.53366961  0.18330009     0.16700
O2664       O  0.56191087  0.56026359  0.15061735    -0.60200
H2665       H  0.64283868  0.58185408  0.08666242     0.16800
O2666       O  0.68604229  0.55542934  0.11918810    -0.60300
H2667       H  0.68807810  0.53709297  0.10579851     0.43800
H2668       H  0.56045831  0.57130443  0.17055217     0.43700
C2669       C  0.60497390  0.45303190  0.37267323    -0.05400
C2670       C  0.59328616  0.47360299  0.35054900    -0.32800
C2671       C  0.61274610  0.48702397  0.32869503     0.36500
C2672       C  0.64471107  0.48076550  0.32948026    -0.05700
C2673       C  0.65683078  0.46366599  0.35434781    -0.32700
C2674       C  0.63710554  0.44962171  0.37582648     0.36400
H2675       H  0.56852154  0.47653831  0.34806649     0.16700
O2676       O  0.59981221  0.50399222  0.30523812    -0.60200
H2677       H  0.68144313  0.45935862  0.35597239     0.16800
O2678       O  0.64924517  0.43048854  0.39797007    -0.60300
H2679       H  0.65567052  0.41166237  0.38684500     0.43800
H2680       H  0.59382156  0.48873894  0.28929625     0.43700
C2681       C  0.31694401  0.31735679  0.52954066    -0.05400
C2682       C  0.32887876  0.33507628  0.50463686    -0.32800
C2683       C  0.34685075  0.36171276  0.50941631     0.36500
C2684       C  0.35312376  0.37150886  0.53960562    -0.05700
C2685       C  0.34009639  0.35420609  0.56431266    -0.32700
C2686       C  0.32281780  0.32743255  0.55959501     0.36400
H2687       H  0.32425771  0.32836803  0.48104914     0.16700
O2688       O  0.35701668  0.37822033  0.48441744    -0.60200
H2689       H  0.34394041  0.36132901  0.58794261     0.16800
O2690       O  0.31186023  0.31142939  0.58465382    -0.60300
H2691       H  0.32915439  0.29792380  0.59121042     0.43800
H2692       H  0.37533352  0.36689246  0.47680441     0.43700
C2693       C  0.20232969  0.33684436  0.47424968    -0.05400
C2694       C  0.20955395  0.35680180  0.45016661    -0.32800
C2695       C  0.19429219  0.38506507  0.44699287     0.36500
C2696       C  0.17091881  0.39440751  0.46857224    -0.05700
C2697       C  0.16692069  0.37594307  0.49485621    -0.32700
C2698       C  0.18262075  0.34779353  0.49805130     0.36400
H2699       H  0.22541882  0.34958767  0.43230191     0.16700
O2700       O  0.20044910  0.40174257  0.42075477    -0.60200
H2701       H  0.14946383  0.38182453  0.51167360     0.16800
O2702       O  0.17711882  0.33042433  0.52398327    -0.60300
H2703       H  0.19420425  0.33559886  0.53835234     0.43800
H2704       H  0.18908550  0.39124677  0.40390394     0.43700
C2705       C  0.32283372  0.17958385  0.43375394    -0.05400
C2706       C  0.33091431  0.15444072  0.45298630    -0.24800
C2707       C  0.36048538  0.14094716  0.45188837     0.36500
C2708       C  0.38249125  0.15196890  0.43075766    -0.05700
C2709       C  0.37297158  0.17503934  0.40937818    -0.32700
C2710       C  0.34405037  0.18941909  0.41148246     0.36400
H2711       H  0.31476685  0.14624468  0.47020797     0.16700
O2712       O  0.36816325  0.11840507  0.47278290    -0.60200
H2713       H  0.38835085  0.18280521  0.39125129     0.16800
O2714       O  0.33665860  0.21282198  0.39144546    -0.60300
H2715       H  0.34655002  0.23148666  0.40014423     0.43800
H2716       H  0.35782365  0.09946720  0.46524652     0.43700
C2717       C  0.17218702  0.19582065  0.55757476    -0.05400
C2718       C  0.17407522  0.16373917  0.56257733    -0.32800
C2719       C  0.14743903  0.14480692  0.56077588     0.36500
C2720       C  0.11819379  0.15793510  0.55436704    -0.05700
C2721       C  0.11763350  0.18878474  0.54449366    -0.32700
C2722       C  0.14339725  0.20787993  0.54758824     0.36400
H2723       H  0.19612669  0.15332036  0.56814925     0.16700
O2724       O  0.15038619  0.11380949  0.56595475    -0.60200
H2725       H  0.09598797  0.19917922  0.53736242     0.16800
O2726       O  0.13979682  0.23856751  0.54077672    -0.60300
H2727       H  0.13286551  0.24814667  0.56029162     0.43800
H2728       H  0.15080329  0.10421886  0.54528103     0.43700
C2729       C  0.32193044  0.14868407  0.53664985    -0.05400
C2730       C  0.35254659  0.15956678  0.53829518    -0.32800
C2731       C  0.37613667  0.14088299  0.55020759     0.36500
C2732       C  0.36861378  0.11171936  0.56243272    -0.05700
C2733       C  0.33941188  0.09913520  0.55548609    -0.32700
C2734       C  0.31600775  0.11745251  0.54307652     0.36400
H2735       H  0.35797360  0.18301532  0.53151515     0.16700
O2736       O  0.40543144  0.15268852  0.55269888    -0.60200
H2737       H  0.33372366  0.07582725  0.56254921     0.16800
O2738       O  0.28693979  0.10519887  0.53976604    -0.60300
H2739       H  0.27669035  0.10831618  0.55996525     0.43800
H2740       H  0.41545704  0.14806183  0.53271545     0.43700
C2741       C  0.14776285  0.16869958  0.46761555    -0.05400
C2742       C  0.14070842  0.13931367  0.47913887    -0.32800
C2743       C  0.11935894  0.12046965  0.46397516     0.36500
C2744       C  0.10676417  0.13013295  0.43560943    -0.05700
C2745       C  0.11260080  0.16026347  0.42521491    -0.32700
C2746       C  0.13197065  0.17993223  0.44164791     0.36400
H2747       H  0.15333185  0.13022292  0.49864390     0.16700
O2748       O  0.11469913  0.09094564  0.47439891    -0.60200
H2749       H  0.10592794  0.16749883  0.40239283     0.16800
O2750       O  0.13854178  0.20856246  0.42974630    -0.60300
H2751       H  0.15566698  0.20531820  0.41497677     0.43800
H2752       H  0.09849121  0.09269228  0.49044868     0.43700
C2753       C  0.47865164  0.20066234  0.32088799    -0.05400
C2754       C  0.49447940  0.17236685  0.32363768    -0.32800
C2755       C  0.49617761  0.15676027  0.35201136     0.36500
C2756       C  0.47999611  0.16841400  0.37768768    -0.05700
C2757       C  0.47173938  0.19993338  0.37647418    -0.32700
C2758       C  0.46982131  0.21558583  0.34818517     0.36400
H2759       H  0.50388691  0.16123545  0.30343253     0.16700
O2760       O  0.50840332  0.12764113  0.35282216    -0.60200
H2761       H  0.46437966  0.21219815  0.39671362     0.16800
O2762       O  0.45813035  0.24492448  0.34748823    -0.60300
H2763       H  0.47643306  0.25865398  0.34866608     0.43800
H2764       H  0.52852076  0.12985601  0.36358502     0.43700
C2765       C  0.53665211  0.36497990  0.35340562    -0.05400
C2766       C  0.56004251  0.35285669  0.33397142    -0.32800
C2767       C  0.55340434  0.33327506  0.30945862     0.36500
C2768       C  0.52281817  0.32442273  0.30389335    -0.05700
C2769       C  0.49936418  0.33570973  0.32369930    -0.32700
C2770       C  0.50603130  0.35566170  0.34820809     0.36400
H2771       H  0.58406357  0.35891726  0.33779297     0.16700
O2772       O  0.57711560  0.32289802  0.29133369    -0.60200
H2773       H  0.47545638  0.32906041  0.32032513     0.16800
O2774       O  0.48246471  0.36531052  0.36681227    -0.60300
H2775       H  0.48125369  0.34970574  0.38356932     0.43800
H2776       H  0.57965652  0.33880379  0.27502034     0.43700
C2777       C  0.57395372  0.13652513  0.13130804    -0.05400
C2778       C  0.59474210  0.14985482  0.15287997    -0.32800
C2779       C  0.58705705  0.17650514  0.16929666     0.36500
C2780       C  0.55892174  0.19114583  0.16337152    -0.05700
C2781       C  0.54035643  0.18049085  0.13882684    -0.32700
C2782       C  0.54769284  0.15341501  0.12282763     0.36400
H2783       H  0.61626668  0.13855523  0.15860971     0.16700
O2784       O  0.60593081  0.18649092  0.19267012    -0.60200
H2785       H  0.51850461  0.19169877  0.13394369     0.16800
O2786       O  0.52739484  0.14208462  0.10136679    -0.60300
H2787       H  0.53143830  0.15418918  0.08234002     0.43800
H2788       H  0.59944618  0.17459690  0.21115828     0.43700
C2789       C  0.43178736  0.33366716  0.18291255    -0.05400
C2790       C  0.44776260  0.35799353  0.19710248    -0.32800
C2791       C  0.45445542  0.38533971  0.18105375     0.36500
C2792       C  0.44359967  0.38979253  0.15041712    -0.05700
C2793       C  0.43188045  0.36390812  0.13494767    -0.32700
C2794       C  0.42542545  0.33630507  0.15094654     0.36400
H2795       H  0.45515477  0.35590140  0.22090484     0.16700
O2796       O  0.46990542  0.40832164  0.19644561    -0.60200
H2797       H  0.42540295  0.36563844  0.11091888     0.16800
O2798       O  0.41215149  0.31239449  0.13513991    -0.60300
H2799       H  0.38953879  0.31479040  0.13825256     0.43800
H2800       H  0.48731692  0.41449382  0.18303506     0.43700
C2801       C  0.51588459  0.33782463  0.13977410    -0.05400
C2802       C  0.51406588  0.33520346  0.10762824    -0.32800
C2803       C  0.52852157  0.35699536  0.08874507     0.36500
C2804       C  0.54486409  0.38178320  0.10213077    -0.05700
C2805       C  0.54131007  0.38748958  0.13358631    -0.32700
C2806       C  0.52797496  0.36509970  0.15268749     0.36400
H2807       H  0.50389006  0.31494470  0.09718601     0.16700
O2808       O  0.52936088  0.35211566  0.05751667    -0.60200
H2809       H  0.55178968  0.40758678  0.14387649     0.16800
O2810       O  0.52816492  0.36940461  0.18401625    -0.60300
H2811       H  0.54970018  0.36523285  0.19068204     0.43800
H2812       H  0.51447077  0.36703803  0.04862112     0.43700
C2813       C  0.43280651  0.16895020  0.15538679    -0.05400
C2814       C  0.40183675  0.17192577  0.14724913    -0.32800
C2815       C  0.38986729  0.15470840  0.12307590     0.36500
C2816       C  0.40946262  0.13476723  0.10635112    -0.05700
C2817       C  0.43969998  0.12961263  0.11662353    -0.32700
C2818       C  0.45135878  0.14651799  0.14138533     0.36400
H2819       H  0.38734400  0.18876432  0.15858044     0.16700
O2820       O  0.35892303  0.15703868  0.11626088    -0.60200
H2821       H  0.45452840  0.11347658  0.10474325     0.16800
O2822       O  0.48137949  0.14238706  0.15055540    -0.60300
H2823       H  0.48028217  0.12821297  0.16852077     0.43800
H2824       H  0.35594313  0.17819821  0.10803604     0.43700
C2825       C  0.36088924  0.55492465  0.34624839    -0.05400
C2826       C  0.33777344  0.57664432  0.33792600    -0.32800
C2827       C  0.31389055  0.56970607  0.31757631     0.36500
C2828       C  0.31187980  0.54017737  0.30525343    -0.05700
C2829       C  0.33551981  0.51865586  0.31209711    -0.32700
C2830       C  0.36009174  0.52592322  0.33205554     0.36400
H2831       H  0.33758196  0.59921785  0.34831987     0.16700
O2832       O  0.29123609  0.59112715  0.31213770    -0.60200
H2833       H  0.33448127  0.49567921  0.30255216     0.16800
O2834       O  0.38236479  0.50428715  0.33781368    -0.60300
H2835       H  0.39812374  0.50752660  0.32151677     0.43800
H2836       H  0.29978430  0.60494178  0.29596635     0.43700
C2837       C  0.32171992  0.47784219  0.19923709    -0.05400
C2838       C  0.32507896  0.49515034  0.17176705    -0.32800
C2839       C  0.35371527  0.49764295  0.15690914     0.36500
C2840       C  0.37932225  0.48109178  0.16845642    -0.05700
C2841       C  0.37733750  0.47044680  0.19933393    -0.32700
C2842       C  0.34870728  0.46770879  0.21418496     0.36400
H2843       H  0.30516418  0.50553994  0.16071763     0.16700
O2844       O  0.35493003  0.51130116  0.12835430    -0.60200
H2845       H  0.39711361  0.46184642  0.21173342     0.16800
O2846       O  0.34733563  0.45360601  0.24252248    -0.60300
H2847       H  0.35482421  0.46926569  0.25734789     0.43800
H2848       H  0.36250997  0.53251812  0.13219849     0.43700
C2849       C  0.17534954  0.56018385  0.16605244    -0.05400
C2850       C  0.15535728  0.58497365  0.17158906    -0.32800
C2851       C  0.13371220  0.59420612  0.14910337     0.36500
C2852       C  0.13070762  0.57768824  0.12122963    -0.05700
C2853       C  0.14990497  0.55250488  0.11616421    -0.32700
C2854       C  0.17242712  0.54413934  0.13763150     0.36400
H2855       H  0.15674942  0.59746001  0.19311083     0.16700
O2856       O  0.11674054  0.62039049  0.15385050    -0.60200
H2857       H  0.14934857  0.54090172  0.09407559     0.16800
O2858       O  0.19264837  0.52118472  0.12963348    -0.60300
H2859       H  0.18080908  0.50170215  0.13170131     0.43800
H2860       H  0.12938183  0.63743073  0.14518535     0.43700
C2861       C  0.14375009  0.45882462  0.38502980    -0.05400
C2862       C  0.13111415  0.44309205  0.35971699    -0.32800
C2863       C  0.14901226  0.43678181  0.33349944     0.36500
C2864       C  0.17996323  0.44708841  0.33177304    -0.05700
C2865       C  0.19094187  0.46664463  0.35509019    -0.32700
C2866       C  0.17278066  0.47335453  0.38091552     0.36400
H2867       H  0.10793248  0.43395624  0.36079631     0.16700
O2868       O  0.13610064  0.42000899  0.31007286    -0.60200
H2869       H  0.21363355  0.47708432  0.35321578     0.16800
O2870       O  0.18440291  0.49279132  0.40293841    -0.60300
H2871       H  0.17378660  0.51272790  0.39934159     0.43800
H2872       H  0.14326395  0.39812664  0.31369976     0.43700
C2873       C  0.11845357  0.57493483  0.37820934    -0.05400
C2874       C  0.10882971  0.54593153  0.36773382    -0.32800
C2875       C  0.12454677  0.53122113  0.34367279     0.36500
C2876       C  0.15137297  0.54482986  0.33085215    -0.05700
C2877       C  0.16252695  0.57228543  0.34365432    -0.32700
C2878       C  0.14573765  0.58786426  0.36602750     0.36400
H2879       H  0.08708183  0.53636490  0.37570525     0.16700
O2880       O  0.11235491  0.50464180  0.33176531    -0.60200
H2881       H  0.18299888  0.58338626  0.33443945     0.16800
O2882       O  0.15420068  0.61744792  0.37288720    -0.60300
H2883       H  0.14686121  0.63020028  0.35534291     0.43800
H2884       H  0.09674663  0.51146344  0.31640950     0.43700
C2885       C  0.14772420  0.44888968  0.16877854    -0.05400
C2886       C  0.12550697  0.46898973  0.15622297    -0.32800
C2887       C  0.10589642  0.45914590  0.13250361     0.36500
C2888       C  0.10814940  0.42882003  0.12172621    -0.05700
C2889       C  0.13059949  0.40901913  0.13421929    -0.32700
C2890       C  0.15073028  0.41902887  0.15707938     0.36400
H2891       H  0.12310931  0.49214771  0.16512192     0.16700
O2892       O  0.08290930  0.47824372  0.12202033    -0.60200
H2893       H  0.13116556  0.38499501  0.12765583     0.16800
O2894       O  0.17188480  0.39881418  0.16924592    -0.60300
H2895       H  0.16125386  0.38883001  0.18691980     0.43800
H2896       H  0.09257158  0.49065465  0.10534538     0.43700
C2897       C  0.84225969  0.89163873  0.03797519    -0.05400
C2898       C  0.81081781  0.89001583  0.04724881    -0.32800
C2899       C  0.79440666  0.86213680  0.04729305     0.36500
C2900       C  0.80846884  0.83519088  0.03648124    -0.05700
C2901       C  0.83807862  0.83768923  0.02306425    -0.32700
C2902       C  0.85470307  0.86541653  0.02342844     0.36400
H2903       H  0.79858666  0.90944561  0.05635079     0.16700
O2904       O  0.76463409  0.86165533  0.05812860    -0.60200
H2905       H  0.84914747  0.81774560  0.01306179     0.16800
O2906       O  0.88434507  0.86589356  0.01212648    -0.60300
H2907       H  0.89687870  0.85357493  0.02687265     0.43800
H2908       H  0.76657729  0.85886516  0.08077466     0.43700
C2909       C  0.68463971  0.82126316  0.96616506    -0.05400
C2910       C  0.67781112  0.84481904  0.98756806    -0.32800
C2911       C  0.65562473  0.86762693  0.98141153     0.36500
C2912       C  0.63915374  0.86724742  0.95341539    -0.05700
C2913       C  0.64684769  0.84405648  0.93170727    -0.32700
C2914       C  0.66904360  0.82138995  0.93784143     0.36400
H2915       H  0.68969817  0.84557688  0.00956732     0.16700
O2916       O  0.65092498  0.89016176  0.00283533    -0.60200
H2917       H  0.63551795  0.84363513  0.90940082     0.16800
O2918       O  0.67482949  0.79928263  0.91612813    -0.60300
H2919       H  0.65933487  0.78284754  0.92004656     0.43800
H2920       H  0.66590923  0.90669032  0.99748540     0.43700
C2921       C  0.67251642  0.69592756  0.06738588    -0.05400
C2922       C  0.64988768  0.70135508  0.04465352    -0.32800
C2923       C  0.62464225  0.68133127  0.04093956     0.36500
C2924       C  0.62104577  0.65554898  0.06059681    -0.05700
C2925       C  0.64411004  0.64991536  0.08287529    -0.32700
C2926       C  0.66984302  0.66938221  0.08593551     0.36400
H2927       H  0.65187449  0.72116029  0.02947232     0.16700
O2928       O  0.60192560  0.68900671  0.02013811    -0.60200
H2929       H  0.64089848  0.63226846  0.10009801     0.16800
O2930       O  0.69150374  0.66301461  0.10819704    -0.60300
H2931       H  0.68455851  0.67438392  0.12672810     0.43800
H2932       H  0.59998516  0.67111043  0.00614297     0.43700
C2933       C  0.82656334  0.68693792  0.94685086    -0.05400
C2934       C  0.82345387  0.66619661  0.92233967    -0.32800
C2935       C  0.84703063  0.64466585  0.91590980     0.36500
C2936       C  0.87313905  0.64200437  0.93558488    -0.05700
C2937       C  0.87436004  0.66057059  0.96177436    -0.32700
C2938       C  0.85260187  0.68376027  0.96656659     0.36400
H2939       H  0.80397287  0.66824033  0.90673799     0.16700
O2940       O  0.84654366  0.62966564  0.88815965    -0.60200
H2941       H  0.89474867  0.66003130  0.97636620     0.16800
O2942       O  0.85789614  0.70391648  0.99022739    -0.60300
H2943       H  0.87240257  0.71954227  0.98174634     0.43800
H2944       H  0.82717452  0.61738592  0.88807395     0.43700
C2945       C  0.62124290  0.62254772  0.95037603    -0.05400
C2946       C  0.64096522  0.61087920  0.97326905    -0.32800
C2947       C  0.66377249  0.62951581  0.98630185     0.36500
C2948       C  0.66691574  0.66035701  0.97632604    -0.05700
C2949       C  0.64416688  0.67300188  0.95691736    -0.32700
C2950       C  0.62126333  0.65428338  0.94401143     0.36400
H2951       H  0.64087638  0.58644608  0.97855599     0.16700
O2952       O  0.68412938  0.61666383  0.00694023    -0.60200
H2953       H  0.64506722  0.69709277  0.95031609     0.16800
O2954       O  0.60054973  0.66670034  0.92348663    -0.60300
H2955       H  0.61312139  0.67507171  0.90625850     0.43800
H2956       H  0.70025658  0.60674113  0.99415473     0.43700
C2957       C  0.83664884  0.66228724  0.05313503    -0.05400
C2958       C  0.84880085  0.66888579  0.08218905    -0.32800
C2959       C  0.86967207  0.64874904  0.09598908     0.36500
C2960       C  0.88143248  0.62363488  0.07924765    -0.05700
C2961       C  0.87007831  0.61762260  0.04961782    -0.32700
C2962       C  0.84681445  0.63616454  0.03699164     0.36400
H2963       H  0.84016373  0.68828676  0.09522490     0.16700
O2964       O  0.87641575  0.65227889  0.12667201    -0.60200
H2965       H  0.87743584  0.59719553  0.03740373     0.16800
O2966       O  0.83372153  0.62828049  0.00930340    -0.60300
H2967       H  0.81679370  0.61374411  0.01456383     0.43800
H2968       H  0.85912829  0.64227832  0.13791869     0.43700
C2969       C  0.30846342  0.82452612  0.46579595    -0.05400
C2970       C  0.31695302  0.84404660  0.49060798    -0.32800
C2971       C  0.33807847  0.86852047  0.48678516     0.36500
C2972       C  0.35088051  0.87438477  0.45758762    -0.05700
C2973       C  0.34110647  0.85550538  0.43269741    -0.32700
C2974       C  0.32069556  0.83088231  0.43659087     0.36400
H2975       H  0.30780915  0.83990661  0.51349689     0.16700
O2976       O  0.34600500  0.88600693  0.51177176    -0.60200
H2977       H  0.35040715  0.85930337  0.40978528     0.16800
O2978       O  0.31365805  0.81276729  0.41171346    -0.60300
H2979       H  0.33006901  0.79682652  0.41121453     0.43800
H2980       H  0.36283352  0.87444408  0.52219651     0.43700
C2981       C  0.18666750  0.82901600  0.53414291    -0.05400
C2982       C  0.17101485  0.84454625  0.51001139    -0.32800
C2983       C  0.15262765  0.87051033  0.51561604     0.36500
C2984       C  0.14935223  0.88129904  0.54594271    -0.05700
C2985       C  0.16616462  0.86605409  0.56972250    -0.32700
C2986       C  0.18489183  0.84068430  0.56399123     0.36400
H2987       H  0.17225717  0.83591140  0.48664228     0.16700
O2988       O  0.13629214  0.88322604  0.49169413    -0.60200
H2989       H  0.16353204  0.87286583  0.59356931     0.16800
O2990       O  0.19973416  0.82640530  0.58810086    -0.60300
H2991       H  0.18428263  0.81202763  0.59703026     0.43800
H2992       H  0.15090505  0.89765414  0.48150067     0.43700
C2993       C  0.17083378  0.69707036  0.43288993    -0.05400
C2994       C  0.14142629  0.70783938  0.44160810    -0.32800
C2995       C  0.11605568  0.68790651  0.44460942     0.36500
C2996       C  0.11890261  0.65642423  0.43717226    -0.05700
C2997       C  0.14880146  0.64486526  0.43222720    -0.32700
C2998       C  0.17453552  0.66487555  0.42944814     0.36400
H2999       H  0.13793163  0.73199458  0.44664524     0.16700
O3000       O  0.08814746  0.69930988  0.45449485    -0.60200
H3001       H  0.15199877  0.62041506  0.42887841     0.16800
O3002       O  0.20307298  0.65260234  0.42355996    -0.60300
H3003       H  0.20477460  0.65230227  0.40075330     0.43800
H3004       H  0.08281946  0.71655352  0.44036882     0.43700
C3005       C  0.32475809  0.68673177  0.54811217    -0.05400
C3006       C  0.35157993  0.70380757  0.54128305    -0.32800
C3007       C  0.38073724  0.68971278  0.53975492     0.36500
C3008       C  0.38394783  0.65787256  0.54607443    -0.05700
C3009       C  0.35680586  0.64018925  0.54828779    -0.32700
C3010       C  0.32753615  0.65425762  0.54985154     0.36400
H3011       H  0.35011031  0.72835310  0.53693003     0.16700
O3012       O  0.40612347  0.70712751  0.53182794    -0.60200
H3013       H  0.35817513  0.61543695  0.55065416     0.16800
O3014       O  0.30200617  0.63596874  0.55412978    -0.60300
H3015       H  0.29632287  0.62861417  0.53324659     0.43800
H3016       H  0.40723287  0.72413998  0.54699691     0.43700
C3017       C  0.14642148  0.66246545  0.51565092    -0.05400
C3018       C  0.14948025  0.63062175  0.51132510    -0.32800
C3019       C  0.12964925  0.61036197  0.52652458     0.36500
C3020       C  0.10679566  0.62228956  0.54605840    -0.05700
C3021       C  0.09914729  0.65349211  0.54410493    -0.32700
C3022       C  0.11933179  0.67397986  0.52945314     0.36400
H3023       H  0.16896356  0.62137585  0.49873588     0.16700
O3024       O  0.13463359  0.57915951  0.52496765    -0.60200
H3025       H  0.08006122  0.66243496  0.55736000     0.16800
O3026       O  0.11464161  0.70502423  0.53265444    -0.60300
H3027       H  0.10252554  0.71124109  0.51423104     0.43800
H3028       H  0.15494282  0.57547108  0.53497922     0.43700
C3029       C  0.36852171  0.61407966  0.44090881    -0.05400
C3030       C  0.37345641  0.64588864  0.43857176    -0.32800
C3031       C  0.35059098  0.66650616  0.44788691     0.36500
C3032       C  0.32250870  0.65520558  0.46012381    -0.05700
C3033       C  0.31983680  0.62353997  0.46663645    -0.32700
C3034       C  0.34282803  0.60307032  0.45750742     0.36400
H3035       H  0.39361032  0.65485502  0.42682171     0.16700
O3036       O  0.35548431  0.69747267  0.44366463    -0.60200
H3037       H  0.29914184  0.61428644  0.47725033     0.16800
O3038       O  0.33849389  0.57206658  0.46210303    -0.60300
H3039       H  0.35343263  0.56624728  0.47851520     0.43800
H3040       H  0.35085587  0.70146397  0.42159808     0.43700
loop_ 
_geom_bond_atom_site_label_1 
_geom_bond_atom_site_label_2 
_geom_bond_distance 
_geom_bond_site_symmetry_2 
_ccdc_geom_bond_type 
O1           C17   1.273       .  A
O1           Zn7   1.997       .  S
C2           O18   1.268       .  A
C2           O15   1.287       .  A
C2         C2981   1.477       .  S
O3           C16   1.276       .  A
O3          Cd10   2.135       .  S
O4           C22   1.269       .  A
O4          Cd13   2.020       .  S
O5           C19   1.274       .  A
O5           Cd9   2.045       .  S
O6           C17   1.276       .  A
O6           Cd9   2.049       .  S
Zn7          O18   1.944       .  S
Zn7          O20   1.952       .  S
Zn7          O12   1.885       .  S
O8           C19   1.281       .  A
O8          Cd13   2.096       .  S
Cd9          O11   2.050       .  S
Cd9          O12   1.959       .  S
Cd10         O14   2.060       .  S
Cd10         O23   2.136       .  S
Cd10         O12   1.965       .  S
O11          C21   1.273       .  A
O12         Cd13   1.942       .  S
Cd13         O15   2.116       .  S
O14          C21   1.273       .  A
C16          O20   1.264       .  A
C16        C2993   1.504       .  S
C17        C3017   1.467       .  S
C19        C3005   1.500       .  S
C21        C3032   1.480       .  S
C22          O23   1.291       .  A
C22        C2969   1.494       .  S
O24          C40   1.267       .  A
O24         Zn30   1.950       .  S
C25          O41   1.274       .  A
C25          O38   1.272       .  A
C25        C2957   1.458       .  S
O26          C39   1.283       .  A
O26         Cd33   2.142       .  S
O27          C45   1.272   1_554  A
O27         Cd36   2.044       .  S
O28          C42   1.278       .  A
O28         Cd32   2.100       .  S
O29          C40   1.285       .  A
O29         Cd32   2.117       .  S
Zn30         O41   2.006       .  S
Zn30         O43   1.964   1_554  S
Zn30         O35   1.871       .  S
O31          C42   1.268       .  A
O31         Cd36   2.028       .  S
Cd32         O34   2.013       .  S
Cd32         O35   1.965       .  S
Cd33         O37   2.144       .  S
Cd33         O46   2.062       .  S
Cd33         O35   1.965   1_556  S
O34          C44   1.269   1_554  A
O35         Cd36   1.967       .  S
Cd36         O38   2.048       .  S
O37          C44   1.291       .  A
C39          O43   1.265       .  A
C39        C2933   1.497       .  S
C40        C2900   1.490       .  S
C42        C2921   1.487       .  S
C44        C2909   1.492       .  S
C45          O46   1.275       .  A
C45        C2948   1.476       .  S
O47          C63   1.269       .  A
O47         Zn53   1.959       .  S
C48          O64   1.277       .  A
C48          O61   1.276       .  A
C48        C2885   1.461       .  S
O49          C62   1.286       .  A
O49         Cd56   2.148       .  S
O50          C68   1.276       .  A
O50         Cd59   2.063       .  S
O51          C65   1.279       .  A
O51         Cd55   2.100       .  S
O52          C63   1.285       .  A
O52         Cd55   2.109       .  S
Zn53         O64   1.989       .  S
Zn53         O66   1.906       .  S
Zn53         O58   1.835       .  S
O54          C65   1.267       .  A
O54         Cd59   2.020       .  S
Cd55         O57   2.002       .  S
Cd55         O58   1.959       .  S
Cd56         O60   2.132       .  S
Cd56         O69   2.069       .  S
Cd56         O58   1.951       .  S
O57          C67   1.268       .  A
O58         Cd59   1.946       .  S
Cd59         O61   2.057       .  S
O60          C67   1.290       .  A
C62          O66   1.260       .  A
C62        C2849   1.492       .  S
C63        C2837   1.491       .  S
C65        C2864   1.489       .  S
C67        C2828   1.479       .  S
C68          O69   1.279       .  A
C68        C2876   1.485       .  S
O70          C86   1.273       .  A
O70         Zn76   1.975       .  S
C71          O87   1.273       .  A
C71          O84   1.275       .  A
C71        C2813   1.447       .  S
O72          C85   1.285       .  A
O72         Cd79   2.136       .  S
O73          C91   1.276       .  A
O73         Cd82   2.064       .  S
O74          C88   1.279       .  A
O74         Cd78   2.109       .  S
O75          C86   1.289       .  A
O75         Cd78   2.124       .  S
Zn76         O87   1.987       .  S
Zn76         O89   1.941       .  S
Zn76         O81   1.850       .  S
O77          C88   1.266       .  A
O77         Cd82   2.017       .  S
Cd78         O80   1.997       .  S
Cd78         O81   1.955       .  S
Cd79         O83   2.131       .  S
Cd79         O92   2.056       .  S
Cd79         O81   1.953       .  S
O80          C90   1.265       .  A
O81         Cd82   1.955       .  S
Cd82         O84   2.046       .  S
O83          C90   1.289       .  A
C85          O89   1.266       .  A
C85        C2780   1.476       .  S
C86        C2753   1.492       .  S
C88        C2789   1.500       .  S
C90        C2768   1.488       .  S
C91          O92   1.275       .  A
C91        C2801   1.473       .  S
O93         C109   1.265       .  A
O93         Zn99   1.934       .  S
C94         O110   1.275       .  A
C94         O107   1.276       .  A
C94        C2741   1.465       .  S
O95         C108   1.275       .  A
O95        Cd102   2.145       .  S
O96         C114   1.275       .  A
O96        Cd105   2.069       .  S
O97         C111   1.288       .  A
O97        Cd101   2.131       .  S
O98         C109   1.291       .  A
O98        Cd101   2.154       .  S
Zn99        O110   2.007       .  S
Zn99        O112   1.946       .  S
Zn99        O104   1.882       .  S
O100        C111   1.273       .  A
O100       Cd105   2.038       .  S
Cd101       O103   2.028       .  S
Cd101       O104   1.944       .  S
Cd102       O106   2.136       .  S
Cd102       O115   2.053       .  S
Cd102       O104   1.962       .  S
O103        C113   1.271       .  A
O104       Cd105   1.957       .  S
Cd105       O107   2.063       .  S
O106        C113   1.292       .  A
C108        O112   1.259       .  A
C108       C2717   1.504       .  S
C109       C2693   1.495       .  S
C111       C2705   1.489       .  S
C113       C2681   1.495       .  S
C114        O115   1.273       .  A
C114       C2729   1.476       .  S
O116        C132   1.275       .  A
O116       Zn122   2.013       .  S
C117        O133   1.269       .  A
C117        O130   1.283       .  A
C117       C2609   1.487       .  S
O118        C131   1.281       .  A
O118       Cd125   2.150       .  S
O119        C137   1.268       .  A
O119       Cd128   2.009       .  S
O120        C134   1.270       .  A
O120       Cd124   2.027       .  S
O121        C132   1.276       .  A
O121       Cd124   2.045       .  S
Zn122       O133   1.969       .  S
Zn122       O135   1.964       .  S
Zn122       O127   1.900       .  S
O123        C134   1.275       .  A
O123       Cd128   2.086       .  S
Cd124       O126   2.050       .  S
Cd124       O127   1.959       .  S
Cd125       O129   2.059       .  S
Cd125       O138   2.137       .  S
Cd125       O127   1.974       .  S
O126        C136   1.273       .  A
O127       Cd128   1.968       .  S
Cd128       O130   2.095       .  S
O129        C136   1.273       .  A
C131        O135   1.263       .  A
C131       C2633   1.505       .  S
C132       C2657   1.476       .  S
C134       C2645   1.496       .  S
C136       C2672   1.478       .  S
C137        O138   1.292       .  A
C137       C2621   1.491       .  S
O139        C155   1.276       .  A
O139       Zn145   1.996       .  S
C140        O156   1.270       .  A
C140        O153   1.286       .  A
C140       C2537   1.495       .  S
O141        C154   1.286       .  A
O141       Cd148   2.140       .  S
O142        C160   1.266   1_455  A
O142       Cd151   1.995       .  S
O143        C157   1.266       .  A
O143       Cd147   2.018       .  S
O144        C155   1.277       .  A
O144       Cd147   2.067       .  S
Zn145       O156   1.963       .  S
Zn145       O158   1.914   1_455  S
Zn145       O150   1.851       .  S
O146        C157   1.278       .  A
O146       Cd151   2.109       .  S
Cd147       O149   2.076       .  S
Cd147       O150   1.951       .  S
Cd148       O152   2.050       .  S
Cd148       O161   2.136       .  S
Cd148       O150   1.963   1_655  S
O149        C159   1.277   1_455  A
O150       Cd151   1.963       .  S
Cd151       O153   2.122       .  S
O152        C159   1.274       .  A
C154        O158   1.262       .  A
C154       C2573   1.468       .  S
C155       C2597   1.463       .  S
C157       C2561   1.495       .  S
C159       C2585   1.485       .  S
C160        O161   1.289       .  A
C160       C2549   1.482       .  S
O162        C178   1.269       .  A
O162       Zn168   1.962   1_565  S
C163        O179   1.276       .  A
C163        O176   1.276       .  A
C163       C2516   1.473       .  S
O164        C177   1.273       .  A
O164       Cd171   2.131       .  S
O165        C183   1.275       .  A
O165       Cd174   2.066   1_545  S
O166        C180   1.279       .  A
O166       Cd170   2.105       .  S
O167        C178   1.287       .  A
O167       Cd170   2.123       .  S
Zn168       O179   2.004   1_545  S
Zn168       O181   1.953       .  S
Zn168       O173   1.888       .  S
O169        C180   1.269       .  A
O169       Cd174   2.021       .  S
Cd170       O172   2.022   1_565  S
Cd170       O173   1.969   1_565  S
Cd171       O175   2.105       .  S
Cd171       O184   2.038       .  S
Cd171       O173   1.964       .  S
O172        C182   1.270       .  A
O173       Cd174   1.959   1_545  S
Cd174       O176   2.046       .  S
O175        C182   1.289       .  A
C177        O181   1.261       .  A
C177       C2489   1.502       .  S
C178       C2468   1.492       .  S
C180       C2501   1.495       .  S
C182       C2480   1.485       .  S
C183        O184   1.270       .  A
C183       C2525   1.479       .  S
O185        C201   1.276       .  A
O185       Zn191   2.008       .  S
C186        O202   1.270       .  A
C186        O199   1.285       .  A
C186       C2393   1.488       .  S
O187        C200   1.283       .  A
O187       Cd194   2.143       .  S
O188        C206   1.265       .  A
O188       Cd197   1.990       .  S
O189        C203   1.269       .  A
O189       Cd193   2.036       .  S
O190        C201   1.274       .  A
O190       Cd193   2.045       .  S
Zn191       O202   1.982       .  S
Zn191       O204   1.966       .  S
Zn191       O196   1.878       .  S
O192        C203   1.275       .  A
O192       Cd197   2.080       .  S
Cd193       O195   2.054       .  S
Cd193       O196   1.959       .  S
Cd194       O198   2.074       .  S
Cd194       O207   2.140       .  S
Cd194       O196   1.957       .  S
O195        C205   1.274       .  A
O196       Cd197   1.954       .  S
Cd197       O199   2.101       .  S
O198        C205   1.277       .  A
C200        O204   1.268       .  A
C200       C2417   1.496       .  S
C201       C2453   1.456       .  S
C203       C2429   1.481       .  S
C205       C2441   1.483       .  S
C206        O207   1.292       .  A
C206       C2405   1.487       .  S
C208        C209   1.556       .  S
C208        C214   1.532       .  S
C208        C212   1.517       .  S
C208       C2384   1.535       .  S
C209        H216   1.084       .  S
C209        C210   1.390       .  D
C210        C211   1.558       .  S
C210        C281   1.498       .  S
C211        C215   1.524       .  S
C211        C213   1.558       .  S
C211        H217   1.110       .  S
C212        H218   1.089       .  S
C212        C213   1.349       .  D
C213       C2432   1.491       .  S
C214        H219   1.087       .  S
C214        C215   1.361       .  D
C215       C2513   1.477       .  S
C220        C221   1.516       .  S
C220        C226   1.521       .  S
C220        C224   1.548       .  S
C220       C2369   1.526       .  S
C221        H228   1.087       .  S
C221        C222   1.360       .  D
C222        C223   1.558       .  S
C222       C2492   1.504       .  S
C223        C227   1.537       .  S
C223        C225   1.576       .  S
C223        H229   1.110       .  S
C224        H230   1.084       .  S
C224        C225   1.385       .  D
C225        C295   1.509       .  S
C226        H231   1.089       .  S
C226        C227   1.350       .  D
C227       C2588   1.469       .  S
C232        C233   1.516       .  S
C232        C238   1.535       .  S
C232        C236   1.554       .  S
C232       C2357   1.532       .  S
C233        H240   1.090       .  S
C233        C234   1.344       .  D
C234        C235   1.558       .  S
C234       C2345   1.489       .  S
C235        C239   1.531       .  S
C235        C237   1.570       .  S
C235        H241   1.110       .  S
C236        H242   1.084   1_565  S
C236        C237   1.388       .  D
C237        C301   1.509       .  S
C238        H243   1.087       .  S
C238        C239   1.360       .  D
C239       C2444   1.481       .  S
C244        C245   1.554       .  S
C244        C250   1.528       .  S
C244        C248   1.525       .  S
C244       C2336   1.537       .  S
C245        H252   1.082       .  S
C245        C246   1.381       .  D
C246        C247   1.558       .  S
C246        C296   1.496       .  S
C247        C251   1.536       .  S
C247        C249   1.559       .  S
C247        H253   1.110       .  S
C248        H254   1.086       .  S
C248        C249   1.362       .  D
C249       C2564   1.499       .  S
C250        H255   1.088       .  S
C250        C251   1.351       .  D
C251       C2744   1.472       .  S
C256        C257   1.534       .  S
C256        C262   1.534       .  S
C256        C260   1.547       .  S
C256       C2324   1.548       .  S
C257        H264   1.076       .  S
C257        C258   1.366       .  D
C258        C259   1.552       .  S
C258       C2720   1.511       .  S
C259        C263   1.533       .  S
C259        C261   1.569       .  S
C259        H265   1.109       .  S
C260        H266   1.085       .  S
C260        C261   1.382       .  D
C261        C300   1.511       .  S
C262        H267   1.087       .  S
C262        C263   1.351       .  D
C263       C2312   1.467       .  S
C268        C269   1.551       .  S
C268        C274   1.531       .  S
C268        C272   1.517       .  S
C268       C2984   1.530       .  S
C269        H276   1.082       .  S
C269        C270   1.381       .  D
C270        C271   1.560       .  S
C270        C298   1.491       .  S
C271        C275   1.532       .  S
C271        C273   1.552       .  S
C271        H277   1.110       .  S
C272        H278   1.089       .  S
C272        C273   1.350       .  D
C273       C2288   1.480       .  S
C274        H279   1.088       .  S
C274        C275   1.360       .  D
C275       C2300   1.481       .  S
O280        C296   1.280       .  A
O280       Zn286   2.080   1_455  S
C281        O297   1.283       .  A
C281        O294   1.278       .  A
O282        C295   1.288       .  A
O282       Cd289   2.157       .  S
O283        C301   1.276       .  A
O283       Cd292   2.079       .  S
O284        C298   1.280       .  A
O284       Cd288   2.118   1_565  S
O285        C296   1.279       .  A
O285       Cd288   2.105       .  S
Zn286       O297   2.084   1_545  S
Zn286       O299   2.045       .  S
Zn286       O291   1.988       .  S
O287        C298   1.278       .  A
O287       Cd292   2.099   1_455  S
Cd288       O290   2.090       .  S
Cd288       O291   2.032   1_455  S
Cd289       O293   2.165   1_655  S
Cd289       O302   2.165       .  S
Cd289       O291   2.054       .  S
O290        C300   1.277       .  A
O291       Cd292   2.028   1_545  S
Cd292       O294   2.113       .  S
O293        C300   1.289       .  A
C295        O299   1.276       .  A
C301        O302   1.288   1_565  A
O303        C319   1.263       .  A
O303       Zn309   1.914       .  S
C304        O320   1.272       .  A
C304        O317   1.274       .  A
C304       C2273   1.456       .  S
O305        C318   1.278       .  A
O305       Cd312   2.144       .  S
O306        C324   1.274       .  A
O306       Cd315   2.055       .  S
O307        C321   1.285       .  A
O307       Cd311   2.116       .  S
O308        C319   1.287       .  A
O308       Cd311   2.131       .  S
Zn309       O320   1.991       .  S
Zn309       O322   1.945       .  S
Zn309       O314   1.878       .  S
O310        C321   1.271       .  A
O310       Cd315   2.026       .  S
Cd311       O313   2.040       .  S
Cd311       O314   1.950       .  S
Cd312       O316   2.122       .  S
Cd312       O325   2.071       .  S
Cd312       O314   1.956       .  S
O313        C323   1.272       .  A
O314       Cd315   1.949       .  S
Cd315       O317   2.050       .  S
O316        C323   1.291       .  A
C318        O322   1.259       .  A
C318       C2249   1.501       .  S
C319       C2372   1.477       .  S
C321       C2237   1.478       .  S
C323       C2228   1.492       .  S
C324        O325   1.274       .  A
C324       C2261   1.486       .  S
O326        C342   1.267       .  A
O326       Zn332   1.932       .  S
C327        O343   1.275       .  A
C327        O340   1.270       .  A
C327       C2213   1.474       .  S
O328        C341   1.287       .  A
O328       Cd335   2.168       .  S
O329        C347   1.273   1_655  A
O329       Cd338   2.040       .  S
O330        C344   1.280       .  A
O330       Cd334   2.109       .  S
O331        C342   1.288       .  A
O331       Cd334   2.142       .  S
Zn332       O343   1.980       .  S
Zn332       O345   1.902       .  S
Zn332       O337   1.856       .  S
O333        C344   1.268       .  A
O333       Cd338   2.024       .  S
Cd334       O336   2.006       .  S
Cd334       O337   1.955       .  S
Cd335       O339   2.146       .  S
Cd335       O348   2.083       .  S
Cd335       O337   1.966   1_455  S
O336        C346   1.267   1_655  A
O337       Cd338   1.940       .  S
Cd338       O340   2.028       .  S
O339        C346   1.292       .  A
C341        O345   1.258   1_455  A
C341       C2201   1.494       .  S
C342       C2177   1.493       .  S
C344       C2348   1.482       .  S
C346       C2189   1.489       .  S
C347        O348   1.279       .  A
C347       C2297   1.464       .  S
C349        C350   1.515       .  S
C349        C355   1.530       .  S
C349        C353   1.559       .  S
C349       C2168   1.531       .  S
C350        H357   1.089       .  S
C350        C351   1.346       .  D
C351        C352   1.554       .  S
C351       C2204   1.484       .  S
C352        C356   1.528       .  S
C352        C354   1.556       .  S
C352        H358   1.111       .  S
C353        H359   1.084       .  S
C353        C354   1.386       .  D
C354        C439   1.500       .  S
C355        H360   1.086       .  S
C355        C356   1.364       .  D
C356       C3020   1.467       .  S
C361        C362   1.527       .  S
C361        C367   1.525       .  S
C361        C365   1.551       .  S
C361       C2696   1.540       .  S
C362        H369   1.082       .  S
C362        C363   1.364       .  D
C363        C364   1.560       .  S
C363       C2861   1.506       .  S
C364        C368   1.537       .  S
C364        C366   1.574       .  S
C364        H370   1.111       .  S
C365        H371   1.085       .  S
C365        C366   1.388       .  D
C366        C437   1.513       .  S
C367        H372   1.089       .  S
C367        C368   1.345       .  D
C368       C2600   1.479       .  S
C373        C374   1.548       .  S
C373        C379   1.533       .  S
C373        C377   1.520       .  S
C373       C2408   1.531       .  S
C374        H381   1.084       .  S
C374        C375   1.388       .  D
C375        C376   1.582       .  S
C375        C442   1.512       .  S
C376        C380   1.523       .  S
C376        C378   1.560       .  S
C376        H382   1.109       .  S
C377        H383   1.089       .  S
C377        C378   1.350       .  D
C378       C2153   1.511       .  S
C379        H384   1.088       .  S
C379        C380   1.357       .  D
C380       C2216   1.474       .  S
C385        C386   1.557       .  S
C385        C391   1.525       .  S
C385        C389   1.522       .  S
C385       C2624   1.534       .  S
C386        H393   1.083       .  S
C386        C387   1.387       .  D
C387        C388   1.563       .  S
C387        C436   1.507       .  S
C388        C392   1.529       .  S
C388        C390   1.551       .  S
C388        H394   1.108       .  S
C389        H395   1.087       .  S
C389        C390   1.360       .  D
C390       C2576   1.502       .  S
C391        H396   1.088       .  S
C391        C392   1.349       .  D
C392       C2276   1.459       .  S
C397        C398   1.528       .  S
C397        C403   1.526       .  S
C397        C401   1.544       .  S
C397       C2144   1.536       .  S
C398        H405   1.087       .  S
C398        C399   1.360       .  D
C399        C400   1.556       .  S
C399       C2252   1.512       .  S
C400        C404   1.537       .  S
C400        C402   1.579       .  S
C400        H406   1.110       .  S
C401        H407   1.083       .  S
C401        C402   1.381       .  D
C402        C422   1.511       .  S
C403        H408   1.089       .  S
C403        C404   1.357       .  D
C404       C2129   1.472       .  S
C409        C410   1.555       .  S
C409        C415   1.519       .  S
C409        C413   1.520       .  S
C409       C2117   1.534       .  S
C410        H417   1.084       .  S
C410        C411   1.390       .  D
C411        C412   1.579       .  S
C411        C441   1.522       .  S
C412        C416   1.542       .  S
C412        C414   1.561       .  S
C412        H418   1.110       .  S
C413        H419   1.085       .  S
C413        C414   1.360       .  D
C414       C2996   1.507       .  S
C415        H420   1.089       .  S
C415        C416   1.347       .  D
C416       C2873   1.474       .  S
O421        C437   1.286       .  A
O421       Zn427   2.116   1_455  S
C422        O438   1.285       .  A
C422        O435   1.280       .  A
O423        C436   1.286       .  A
O423       Cd430   2.148       .  S
O424        C442   1.275       .  A
O424       Cd433   2.083       .  S
O425        C439   1.283       .  A
O425       Cd429   2.123       .  S
O426        C437   1.283       .  A
O426       Cd429   2.130       .  S
Zn427       O438   2.121       .  S
Zn427       O440   2.047       .  S
Zn427       O432   1.997   1_655  S
O428        C439   1.280       .  A
O428       Cd433   2.120   1_455  S
Cd429       O431   2.113       .  S
Cd429       O432   2.037       .  S
Cd430       O434   2.177   1_655  S
Cd430       O443   2.174       .  S
Cd430       O432   2.061   1_655  S
O431        C441   1.279       .  A
O432       Cd433   2.043   1_455  S
Cd433       O435   2.116       .  S
O434        C441   1.290       .  A
C436        O440   1.279       .  A
C442        O443   1.290       .  A
C444        C445   1.562       .  S
C444        C450   1.524       .  S
C444        C448   1.516       .  S
C444       C2108   1.534       .  S
C445        H452   1.084       .  S
C445        C446   1.389       .  D
C446        C447   1.568       .  S
C446        C537   1.517       .  S
C447        C451   1.542       .  S
C447        C449   1.558       .  S
C447        H453   1.110       .  S
C448        H454   1.089       .  S
C448        C449   1.348       .  D
C449       C2636   1.494       .  S
C450        H455   1.087       .  S
C450        C451   1.360       .  D
C451       C2804   1.480       .  S
C456        C457   1.520       .  S
C456        C462   1.535       .  S
C456        C460   1.551       .  S
C456       C2093   1.533       .  S
C457        H464   1.089       .  S
C457        C458   1.353       .  D
C458        C459   1.561       .  S
C458       C2924   1.493       .  S
C459        C463   1.523       .  S
C459        C461   1.563       .  S
C459        H465   1.111       .  S
C460        H466   1.085       .  S
C460        C461   1.388       .  D
C461        C517   1.497       .  S
C462        H467   1.087       .  S
C462        C463   1.356       .  D
C463       C2660   1.477       .  S
C468        C469   1.548       .  S
C468        C474   1.537       .  S
C468        C472   1.529       .  S
C468       C2084   1.536       .  S
C469        H476   1.085       .  S
C469        C470   1.381       .  D
C470        C471   1.567       .  S
C470        C536   1.507       .  S
C471        C475   1.538       .  S
C471        C473   1.542       .  S
C471        H477   1.110       .  S
C472        H478   1.080       .  S
C472        C473   1.350       .  D
C473       C2060   1.475       .  S
C474        H479   1.087       .  S
C474        C475   1.357       .  D
C475       C2072   1.481       .  S
C480        C481   1.542       .  S
C480        C486   1.546       .  S
C480        C484   1.533       .  S
C480       C2045   1.545       .  S
C481        H488   1.076       .  S
C481        C482   1.363       .  D
C482        C483   1.546       .  S
C482       C2033   1.507       .  S
C483        C487   1.528       .  S
C483        C485   1.569       .  S
C483        H489   1.106       .  S
C484        H490   1.086   1_556  S
C484        C485   1.374       .  D
C485        C532   1.500       .  S
C486        H491   1.086       .  S
C486        C487   1.359       .  D
C487       C2021   1.490       .  S
C492        C493   1.555       .  S
C492        C498   1.533       .  S
C492        C496   1.524       .  S
C492       C2012   1.539       .  S
C493        H500   1.082       .  S
C493        C494   1.388       .  D
C494        C495   1.575       .  S
C494        C531   1.519       .  S
C495        C499   1.528       .  S
C495        C497   1.556       .  S
C495        H501   1.110       .  S
C496        H502   1.087       .  S
C496        C497   1.352       .  D
C497       C1997   1.504       .  S
C498        H503   1.088       .  S
C498        C499   1.356       .  D
C499       C2945   1.470       .  S
C504        C505   1.535       .  S
C504        C510   1.533       .  S
C504        C508   1.539       .  S
C504       C2840   1.540       .  S
C505        H512   1.072       .  S
C505        C506   1.367       .  D
C506        C507   1.563       .  S
C506       C2792   1.514       .  S
C507        C511   1.534       .  S
C507        C509   1.571       .  S
C507        H513   1.110       .  S
C508        H514   1.085       .  S
C508        C509   1.376       .  D
C509        C534   1.505       .  S
C510        H515   1.088       .  S
C510        C511   1.348       .  D
C511       C1985   1.469       .  S
O516        C532   1.282       .  A
O516       Zn522   2.086       .  S
C517        O533   1.281       .  A
C517        O530   1.281       .  A
O518        C531   1.290       .  A
O518       Cd525   2.174       .  S
O519        C537   1.278       .  A
O519       Cd528   2.096       .  S
O520        C534   1.282       .  A
O520       Cd524   2.133       .  S
O521        C532   1.281       .  A
O521       Cd524   2.117   1_556  S
Zn522       O533   2.082   1_556  S
Zn522       O535   2.059       .  S
Zn522       O527   1.996   1_556  S
O523        C534   1.281       .  A
O523       Cd528   2.125       .  S
Cd524       O526   2.087   1_554  S
Cd524       O527   2.036       .  S
Cd525       O529   2.163       .  S
Cd525       O538   2.177   1_556  S
Cd525       O527   2.054   1_556  S
O526        C536   1.277       .  A
O527       Cd528   2.032       .  S
Cd528       O530   2.114       .  S
O529        C536   1.289       .  A
C531        O535   1.278       .  A
C537        O538   1.290       .  A
O539        C555   1.263       .  A
O539       Zn545   1.926       .  S
C540        O556   1.272       .  A
C540        O553   1.277       .  A
C540       C1973   1.458       .  S
O541        C554   1.275       .  A
O541       Cd548   2.132       .  S
O542        C560   1.276       .  A
O542       Cd551   2.074       .  S
O543        C557   1.285       .  A
O543       Cd547   2.112       .  S
O544        C555   1.287       .  A
O544       Cd547   2.140       .  S
Zn545       O556   1.983       .  S
Zn545       O558   1.945       .  S
Zn545       O550   1.886       .  S
O546        C557   1.274       .  A
O546       Cd551   2.044       .  S
Cd547       O549   2.038       .  S
Cd547       O550   1.954       .  S
Cd548       O552   2.124       .  S
Cd548       O561   2.060       .  S
Cd548       O550   1.957       .  S
O549        C559   1.273       .  A
O550       Cd551   1.961       .  S
Cd551       O553   2.063       .  S
O552        C559   1.290       .  A
C554        O558   1.260       .  A
C554       C1961   1.498       .  S
C555       C2165   1.474       .  S
C557       C2036   1.485       .  S
C559       C1952   1.493       .  S
C560        O561   1.273       .  A
C560       C2069   1.486       .  S
C562        C563   1.545       .  S
C562        C568   1.526       .  S
C562        C566   1.531       .  S
C562       C2396   1.533       .  S
C563        H570   1.085       .  S
C563        C564   1.384       .  D
C564        C565   1.572       .  S
C564        C655   1.509       .  S
C565        C569   1.528       .  S
C565        C567   1.558       .  S
C565        H571   1.107       .  S
C566        H572   1.082       .  S
C566        C567   1.369       .  D
C567       C2648   1.522       .  S
C568        H573   1.089       .  S
C568        C569   1.347       .  D
C569       C1937   1.470       .  S
C574        C575   1.548       .  S
C574        C580   1.527       .  S
C574        C578   1.511       .  S
C574       C1925   1.526       .  S
C575        H582   1.085       .  S
C575        C576   1.390       .  D
C576        C577   1.581       .  S
C576        C649   1.512       .  S
C577        C581   1.536       .  S
C577        C579   1.566       .  S
C577        H583   1.110       .  S
C578        H584   1.089       .  S
C578        C579   1.349       .  D
C579       C1916   1.496       .  S
C580        H585   1.088       .  S
C580        C581   1.355       .  D
C581       C2264   1.489       .  S
C586        C587   1.548       .  S
C586        C592   1.539       .  S
C586        C590   1.534       .  S
C586       C1904   1.547       .  S
C587        H594   1.085       .  S
C587        C588   1.379       .  D
C588        C589   1.561       .  S
C588        C654   1.506       .  S
C589        C593   1.527       .  S
C589        C591   1.554       .  S
C589        H595   1.110       .  S
C590        H596   1.078       .  S
C590        C591   1.366       .  D
C591       C3008   1.511       .  S
C592        H597   1.087       .  S
C592        C593   1.354       .  D
C593       C1976   1.462       .  S
C598        C599   1.521       .  S
C598        C604   1.538       .  S
C598        C602   1.546       .  S
C598       C2825   1.532       .  S
C599        H606   1.087       .  S
C599        C600   1.352       .  D
C600        C601   1.556       .  S
C600       C1892   1.504       .  S
C601        C605   1.529       .  S
C601        C603   1.572       .  S
C601        H607   1.111       .  S
C602        H608   1.083       .  S
C602        C603   1.382       .  D
C603        C652   1.501       .  S
C604        H609   1.087       .  S
C604        C605   1.359       .  D
C605       C3029   1.475       .  S
C610        C611   1.520       .  S
C610        C616   1.533       .  S
C610        C614   1.549       .  S
C610       C2765   1.531       .  S
C611        H618   1.087       .  S
C611        C612   1.355       .  D
C612        C613   1.560       .  S
C612       C2240   1.504       .  S
C613        C617   1.528       .  S
C613        C615   1.567       .  S
C613        H619   1.109       .  S
C614        H620   1.083       .  S
C614        C615   1.383       .  D
C615        C635   1.499       .  S
C616        H621   1.088       .  S
C616        C617   1.355       .  D
C617       C2669   1.474       .  S
C622        C623   1.525       .  S
C622        C628   1.523       .  S
C622        C626   1.556       .  S
C622       C2684   1.538       .  S
C623        H630   1.087       .  S
C623        C624   1.363       .  D
C624        C625   1.556       .  S
C624       C1964   1.505       .  S
C625        C629   1.534       .  S
C625        C627   1.565       .  S
C625        H631   1.111       .  S
C626        H632   1.082       .  S
C626        C627   1.385       .  D
C627        C650   1.505       .  S
C628        H633   1.089       .  S
C628        C629   1.349       .  D
C629       C1877   1.461       .  S
O634        C650   1.283       .  A
O634       Zn640   2.094       .  S
C635        O651   1.282       .  A
C635        O648   1.281       .  A
O636        C649   1.288       .  A
O636       Cd643   2.155       .  S
O637        C655   1.278       .  A
O637       Cd646   2.096       .  S
O638        C652   1.279       .  A
O638       Cd642   2.104       .  S
O639        C650   1.280       .  A
O639       Cd642   2.124       .  S
Zn640       O651   2.089       .  S
Zn640       O653   2.059       .  S
Zn640       O645   1.994       .  S
O641        C652   1.283       .  A
O641       Cd646   2.138       .  S
Cd642       O644   2.069       .  S
Cd642       O645   2.029       .  S
Cd643       O647   2.163       .  S
Cd643       O656   2.150       .  S
Cd643       O645   2.055       .  S
O644        C654   1.274       .  A
O645       Cd646   2.037       .  S
Cd646       O648   2.113       .  S
O647        C654   1.288       .  A
C649        O653   1.279       .  A
C655        O656   1.286       .  A
O657        C673   1.273       .  A
O657       Zn663   2.001       .  S
C658        O674   1.272       .  A
C658        O671   1.291       .  A
C658       C1901   1.493       .  S
O659        C672   1.284       .  A
O659       Cd666   2.129       .  S
O660        C678   1.266       .  A
O660       Cd669   2.007       .  S
O661        C675   1.268       .  A
O661       Cd665   2.018       .  S
O662        C673   1.274       .  A
O662       Cd665   2.049       .  S
Zn663       O674   1.972       .  S
Zn663       O676   1.938       .  S
Zn663       O668   1.866       .  S
O664        C675   1.280       .  A
O664       Cd669   2.121       .  S
Cd665       O667   2.056       .  S
Cd665       O668   1.969       .  S
Cd666       O670   2.062       .  S
Cd666       O679   2.129       .  S
Cd666       O668   1.971       .  S
O667        C677   1.274       .  A
O668       Cd669   1.970       .  S
Cd669       O671   2.137       .  S
O670        C677   1.275       .  A
C672        O676   1.266       .  A
C672       C2000   1.474       .  S
C673       C2024   1.459       .  S
C675       C1853   1.505       .  S
C677       C1865   1.470       .  S
C678        O679   1.286       .  A
C678       C1844   1.485       .  S
O680        C696   1.274       .  A
O680       Zn686   1.996       .  S
C681        O697   1.266   1_565  A
C681        O694   1.287       .  A
C681       C1784   1.485       .  S
O682        C695   1.276       .  A
O682       Cd689   2.150       .  S
O683        C701   1.271       .  A
O683       Cd692   2.024   1_545  S
O684        C698   1.271       .  A
O684       Cd688   2.051   1_565  S
O685        C696   1.275       .  A
O685       Cd688   2.056       .  S
Zn686       O697   1.935       .  S
Zn686       O699   1.952       .  S
Zn686       O691   1.881       .  S
O687        C698   1.282       .  A
O687       Cd692   2.109       .  S
Cd688       O690   2.060       .  S
Cd688       O691   1.965       .  S
Cd689       O693   2.052       .  S
Cd689       O702   2.142       .  S
Cd689       O691   1.974       .  S
O690        C700   1.275       .  A
O691       Cd692   1.949   1_545  S
Cd692       O694   2.138       .  S
O693        C700   1.273       .  A
C695        O699   1.260       .  A
C695       C1796   1.505       .  S
C696       C1820   1.461   1_545  S
C698       C1805   1.482       .  S
C700       C1829   1.480       .  S
C701        O702   1.292       .  A
C701       C2333   1.496       .  S
O703        C719   1.269       .  A
O703       Zn709   1.962       .  S
C704        O720   1.277       .  A
C704        O717   1.277       .  A
C704       C1760   1.464       .  S
O705        C718   1.284       .  A
O705       Cd712   2.125       .  S
O706        C724   1.277       .  A
O706       Cd715   2.075   1_554  S
O707        C721   1.281       .  A
O707       Cd711   2.101       .  S
O708        C719   1.286       .  A
O708       Cd711   2.131       .  S
Zn709       O720   2.001       .  S
Zn709       O722   1.925   1_556  S
Zn709       O714   1.855       .  S
O710        C721   1.268       .  A
O710       Cd715   2.027       .  S
Cd711       O713   2.000       .  S
Cd711       O714   1.950       .  S
Cd712       O716   2.134       .  S
Cd712       O725   2.069       .  S
Cd712       O714   1.956   1_554  S
O713        C723   1.266   1_556  A
O714       Cd715   1.940       .  S
Cd715       O717   2.066       .  S
O716        C723   1.288       .  A
C718        O722   1.263       .  A
C718       C1733   1.468       .  S
C719       C2048   1.498       .  S
C721       C1745   1.493       .  S
C723       C1724   1.478       .  S
C724        O725   1.278       .  A
C724       C1769   1.487       .  S
C726        C727   1.544       .  S
C726        C732   1.526       .  S
C726        C730   1.535       .  S
C726       C1709   1.535       .  S
C727        H734   1.085   1_565  S
C727        C728   1.379       .  D
C728        C729   1.569       .  S
C728        C816   1.501       .  S
C729        C733   1.532       .  S
C729        C731   1.565       .  S
C729        H735   1.109       .  S
C730        H736   1.081       .  S
C730        C731   1.368       .  D
C731       C1856   1.520       .  S
C732        H737   1.089       .  S
C732        C733   1.345       .  D
C733       C1757   1.469       .  S
C738        C739   1.518       .  S
C738        C744   1.527       .  S
C738        C742   1.564       .  S
C738       C2912   1.539       .  S
C739        H746   1.089       .  S
C739        C740   1.348       .  D
C740        C741   1.553       .  S
C740       C1697   1.487       .  S
C741        C745   1.543       .  S
C741        C743   1.563       .  S
C741        H747   1.109       .  S
C742        H748   1.082       .  S
C742        C743   1.386       .  D
C743        C818   1.516       .  S
C744        H749   1.087       .  S
C744        C745   1.365       .  D
C745       C1868   1.483       .  S
C750        C751   1.522       .  S
C750        C756   1.525       .  S
C750        C754   1.561       .  S
C750       C1685   1.534       .  S
C751        H758   1.086       .  S
C751        C752   1.355       .  D
C752        C753   1.549       .  S
C752       C1736   1.490       .  S
C753        C757   1.535       .  S
C753        C755   1.560       .  S
C753        H759   1.110       .  S
C754        H760   1.082       .  S
C754        C755   1.388       .  D
C755        C819   1.506       .  S
C756        H761   1.088       .  S
C756        C757   1.351       .  D
C757       C1817   1.467       .  S
C762        C763   1.543       .  S
C762        C768   1.535       .  S
C762        C766   1.540       .  S
C762       C1673   1.556       .  S
C763        H770   1.085   1_554  S
C763        C764   1.381       .  D
C764        C765   1.570       .  S
C764        C799   1.511       .  S
C765        C769   1.528       .  S
C765        C767   1.552       .  S
C765        H771   1.111       .  S
C766        H772   1.077       .  S
C766        C767   1.367       .  D
C767       C1793   1.514       .  S
C768        H773   1.086       .  S
C768        C769   1.355       .  D
C769       C2816   1.471       .  S
C774        C775   1.550       .  S
C774        C780   1.526       .  S
C774        C778   1.526       .  S
C774       C1661   1.532       .  S
C775        H782   1.084       .  S
C775        C776   1.385       .  D
C776        C777   1.562       .  S
C776        C814   1.497       .  S
C777        C781   1.531       .  S
C777        C779   1.560       .  S
C777        H783   1.109       .  S
C778        H784   1.085       .  S
C778        C779   1.366       .  D
C779       C1649   1.511       .  S
C780        H785   1.089       .  S
C780        C781   1.346       .  D
C781       C1640   1.463       .  S
C786        C787   1.527       .  S
C786        C792   1.532       .  S
C786        C790   1.550       .  S
C786       C2477   1.531       .  S
C787        H794   1.088       .  S
C787        C788   1.355       .  D
C788        C789   1.553       .  S
C788       C2777   1.504       .  S
C789        C793   1.527       .  S
C789        C791   1.572       .  S
C789        H795   1.109       .  S
C790        H796   1.083       .  S
C790        C791   1.387       .  D
C791        C813   1.512       .  S
C792        H797   1.088       .  S
C792        C793   1.353       .  D
C793       C1625   1.467       .  S
O798        C814   1.282       .  A
O798       Zn804   2.089   1_556  S
C799        O815   1.285       .  A
C799        O812   1.282       .  A
O800        C813   1.287       .  A
O800       Cd807   2.151   1_545  S
O801        C819   1.279       .  A
O801       Cd810   2.091       .  S
O802        C816   1.279       .  A
O802       Cd806   2.116   1_565  S
O803        C814   1.280       .  A
O803       Cd806   2.107       .  S
Zn804       O815   2.110       .  S
Zn804       O817   2.068       .  S
Zn804       O809   1.995   1_554  S
O805        C816   1.282       .  A
O805       Cd810   2.131   1_556  S
Cd806       O808   2.099   1_545  S
Cd806       O809   2.032       .  S
Cd807       O811   2.171   1_554  S
Cd807       O820   2.149       .  S
Cd807       O809   2.056   1_564  S
O808        C818   1.278       .  A
O809       Cd810   2.032   1_546  S
Cd810       O812   2.130   1_565  S
O811        C818   1.289       .  A
C813        O817   1.280       .  A
C819        O820   1.286       .  A
O821        C837   1.274       .  A
O821       Zn827   2.006       .  S
C822        O838   1.267       .  A
C822        O835   1.288       .  A
C822       C2381   1.480       .  S
O823        C836   1.276       .  A
O823       Cd830   2.132       .  S
O824        C842   1.268   1_655  A
O824       Cd833   2.018       .  S
O825        C839   1.270       .  A
O825       Cd829   2.025       .  S
O826        C837   1.274       .  A
O826       Cd829   2.046       .  S
Zn827       O838   1.964       .  S
Zn827       O840   1.956   1_655  S
Zn827       O832   1.880       .  S
O828        C839   1.279       .  A
O828       Cd833   2.100       .  S
Cd829       O831   2.057       .  S
Cd829       O832   1.974       .  S
Cd830       O834   2.043       .  S
Cd830       O843   2.124       .  S
Cd830       O832   1.961   1_455  S
O831        C841   1.274   1_655  A
O832       Cd833   1.962       .  S
Cd833       O835   2.128       .  S
O834        C841   1.272       .  A
C836        O840   1.263       .  A
C836       C1580   1.496       .  S
C837       C1601   1.451       .  S
C839       C1589   1.500       .  S
C841       C1613   1.473       .  S
C842        O843   1.290       .  A
C842       C2120   1.486       .  S
O844        C860   1.273       .  A
O844       Zn850   1.988       .  S
C845        O861   1.267       .  A
C845        O858   1.286       .  A
C845       C1541   1.487       .  S
O846        C859   1.287       .  A
O846       Cd853   2.155       .  S
O847        C865   1.266   1_556  A
O847       Cd856   2.008       .  S
O848        C862   1.267       .  A
O848       Cd852   2.011       .  S
O849        C860   1.272       .  A
O849       Cd852   2.036       .  S
Zn850       O861   1.934       .  S
Zn850       O863   1.908   1_556  S
Zn850       O855   1.858       .  S
O851        C862   1.278       .  A
O851       Cd856   2.108       .  S
Cd852       O854   2.033       .  S
Cd852       O855   1.946       .  S
Cd853       O857   2.079       .  S
Cd853       O866   2.150       .  S
Cd853       O855   1.972   1_554  S
O854        C864   1.272   1_556  A
O855       Cd856   1.971       .  S
Cd856       O858   2.122       .  S
O857        C864   1.277       .  A
C859        O863   1.261       .  A
C859       C1553   1.475       .  S
C860       C1565   1.474       .  S
C862       C1652   1.498       .  S
C864       C1628   1.473       .  S
C865        O866   1.292       .  A
C865       C2105   1.492       .  S
O867        C883   1.277       .  A
O867       Zn873   2.012       .  S
C868        O884   1.265       .  A
C868        O881   1.284       .  A
C868       C1505   1.473       .  S
O869        C882   1.279       .  A
O869       Cd876   2.126       .  S
O870        C888   1.269   1_545  A
O870       Cd879   2.022       .  S
O871        C885   1.272       .  A
O871       Cd875   2.025       .  S
O872        C883   1.276       .  A
O872       Cd875   2.058       .  S
Zn873       O884   1.946       .  S
Zn873       O886   1.953   1_545  S
Zn873       O878   1.864       .  S
O874        C885   1.282       .  A
O874       Cd879   2.085       .  S
Cd875       O877   2.068   1_545  S
Cd875       O878   1.941       .  S
Cd876       O880   2.062       .  S
Cd876       O889   2.133       .  S
Cd876       O878   1.947   1_565  S
O877        C887   1.277       .  A
O878       Cd879   1.940       .  S
Cd879       O881   2.120       .  S
O880        C887   1.276       .  A
C882        O886   1.261       .  A
C882       C2285   1.492       .  S
C883       C2309   1.467       .  S
C885       C1517   1.475       .  S
C887       C1532   1.481       .  S
C888        O889   1.290       .  A
C888       C1712   1.490       .  S
C890        C891   1.550       .  S
C890        C896   1.537       .  S
C890        C894   1.534       .  S
C890       C1493   1.539       .  S
C891        H898   1.085   1_556  S
C891        C892   1.382       .  D
C892        C893   1.558       .  S
C892        C963   1.496       .  S
C893        C897   1.516       .  S
C893        C895   1.553       .  S
C893        H899   1.108       .  S
C894        H900   1.083       .  S
C894        C895   1.362       .  D
C895       C1520   1.502       .  S
C896        H901   1.088       .  S
C896        C897   1.352       .  D
C897       C1484   1.465       .  S
C902        C903   1.554       .  S
C902        C908   1.525       .  S
C902        C906   1.525       .  S
C902       C1781   1.538       .  S
C903        H910   1.082   1_565  S
C903        C904   1.381       .  D
C904        C905   1.565       .  S
C904        C980   1.503       .  S
C905        C909   1.540       .  S
C905        C907   1.549       .  S
C905        H911   1.111       .  S
C906        H912   1.087       .  S
C906        C907   1.363       .  D
C907       C1577   1.490       .  S
C908        H913   1.089       .  S
C908        C909   1.352       .  D
C909       C1772   1.476       .  S
C914        C915   1.552       .  S
C914        C920   1.525       .  S
C914        C918   1.515       .  S
C914       C2552   1.532       .  S
C915        H922   1.084       .  S
C915        C916   1.380       .  D
C916        C917   1.567       .  S
C916        C978   1.504       .  S
C917        C921   1.541       .  S
C917        C919   1.559       .  S
C917        H923   1.110       .  S
C918        H924   1.087       .  S
C918        C919   1.357       .  D
C919       C1556   1.501       .  S
C920        H925   1.087       .  S
C920        C921   1.358       .  D
C921       C2528   1.468       .  S
C926        C927   1.537       .  S
C926        C932   1.534       .  S
C926        C930   1.548       .  S
C926       C2897   1.542       .  S
C927        H934   1.073       .  S
C927        C928   1.367       .  D
C928        C929   1.558       .  S
C928       C2504   1.511       .  S
C929        C933   1.524       .  S
C929        C931   1.566       .  S
C929        H935   1.110       .  S
C930        H936   1.085       .  S
C930        C931   1.380       .  D
C931        C982   1.508       .  S
C932        H937   1.088       .  S
C932        C933   1.347       .  D
C933       C1604   1.462       .  S
C938        C939   1.530       .  S
C938        C944   1.520       .  S
C938        C942   1.550       .  S
C938       C2192   1.534       .  S
C939        H946   1.081       .  S
C939        C940   1.364       .  D
C940        C941   1.559       .  S
C940       C1748   1.506       .  S
C941        C945   1.541       .  S
C941        C943   1.572       .  S
C941        H947   1.110       .  S
C942        H948   1.084       .  S
C942        C943   1.383       .  D
C943        C983   1.514       .  S
C944        H949   1.089       .  S
C944        C945   1.345       .  D
C945       C1529   1.473       .  S
C950        C951   1.535       .  S
C950        C956   1.542       .  S
C950        C954   1.540       .  S
C950       C1472   1.546       .  S
C951        H958   1.076       .  S
C951        C952   1.361       .  D
C952        C953   1.550       .  S
C952       C1457   1.503       .  S
C953        C957   1.522       .  S
C953        C955   1.568       .  S
C953        H959   1.110       .  S
C954        H960   1.085       .  S
C954        C955   1.380       .  D
C955        C977   1.510       .  S
C956        H961   1.087       .  S
C956        C957   1.356       .  D
C957       C1568   1.469       .  S
O962        C978   1.282       .  A
O962       Zn968   2.097   1_654  S
C963        O979   1.284       .  A
C963        O976   1.280       .  A
O964        C977   1.285       .  A
O964       Cd971   2.139   1_545  S
O965        C983   1.278       .  A
O965       Cd974   2.104   1_556  S
O966        C980   1.284       .  A
O966       Cd970   2.142   1_465  S
O967        C978   1.281       .  A
O967       Cd970   2.118       .  S
Zn968       O979   2.090       .  S
Zn968       O981   2.067   1_455  S
Zn968       O973   1.997   1_556  S
O969        C980   1.279       .  A
O969       Cd974   2.114       .  S
Cd970       O972   2.087   1_545  S
Cd970       O973   2.036   1_655  S
Cd971       O975   2.159   1_556  S
Cd971       O984   2.157   1_655  S
Cd971       O973   2.046   1_666  S
O972        C982   1.277       .  A
O973       Cd974   2.037   1_545  S
Cd974       O976   2.110   1_564  S
O975        C982   1.288       .  A
C977        O981   1.279       .  A
C983        O984   1.288       .  A
O985       C1001   1.280       .  A
O985       Zn991   2.004       .  S
C986       O1002   1.273       .  A
C986        O999   1.290       .  A
C986       C1676   1.504       .  S
O987       C1000   1.285       .  A
O987       Cd994   2.140       .  S
O988       C1006   1.260   1_554  A
O988       Cd997   2.003       .  S
O989       C1003   1.264       .  A
O989       Cd993   2.019       .  S
O990       C1001   1.278       .  A
O990       Cd993   2.059       .  S
Zn991      O1002   1.982       .  S
Zn991      O1004   1.920   1_554  S
Zn991       O996   1.841       .  S
O992       C1003   1.278       .  A
O992       Cd997   2.100       .  S
Cd993       O995   2.089       .  S
Cd993       O996   1.936       .  S
Cd994       O998   2.079       .  S
Cd994      O1007   2.163       .  S
Cd994       O996   1.964   1_556  S
O995       C1005   1.281   1_554  A
O996       Cd997   1.960       .  S
Cd997       O999   2.150       .  S
O998       C1005   1.282       .  A
C1000      O1004   1.264       .  A
C1000      C2057   1.493       .  S
C1001      C1988   1.469       .  S
C1003      C1433   1.488       .  S
C1005      C1448   1.491       .  S
C1006      O1007   1.288       .  A
C1006      C1496   1.493       .  S
O1008      C1024   1.272       .  A
O1008     Zn1014   1.990       .  S
C1009      O1025   1.268       .  A
C1009      O1022   1.292       .  A
C1009      C1928   1.477       .  S
O1010      C1023   1.285       .  A
O1010     Cd1017   2.135       .  S
O1011      C1029   1.268       .  A
O1011     Cd1020   2.012       .  S
O1012      C1026   1.268       .  A
O1012     Cd1016   2.037       .  S
O1013      C1024   1.275       .  A
O1013     Cd1016   2.046       .  S
Zn1014     O1025   1.942       .  S
Zn1014     O1027   1.932       .  S
Zn1014     O1019   1.846       .  S
O1015      C1026   1.281       .  A
O1015     Cd1020   2.105       .  S
Cd1016     O1018   2.076       .  S
Cd1016     O1019   1.943       .  S
Cd1017     O1021   2.051       .  S
Cd1017     O1030   2.145       .  S
Cd1017     O1019   1.933       .  S
O1018      C1028   1.278       .  A
O1019     Cd1020   1.923       .  S
Cd1020     O1022   2.122       .  S
O1021      C1028   1.276       .  A
C1023      O1027   1.265       .  A
C1023      C2156   1.475       .  S
C1024      C2132   1.450       .  S
C1026      C1409   1.477       .  S
C1028      C1421   1.473       .  S
C1029      O1030   1.292       .  A
C1029      C2009   1.494       .  S
O1031      C1047   1.271       .  A
O1031     Zn1037   1.965       .  S
C1032      O1048   1.275       .  A
C1032      O1045   1.274       .  A
C1032      C1481   1.475       .  S
O1033      C1046   1.285       .  A
O1033     Cd1040   2.142       .  S
O1034      C1052   1.273   1_455  A
O1034     Cd1043   2.055       .  S
O1035      C1049   1.279       .  A
O1035     Cd1039   2.108       .  S
O1036      C1047   1.289       .  A
O1036     Cd1039   2.132       .  S
Zn1037     O1048   2.008       .  S
Zn1037     O1050   1.925   1_455  S
Zn1037     O1042   1.870       .  S
O1038      C1049   1.267       .  A
O1038     Cd1043   2.014       .  S
Cd1039     O1041   2.013       .  S
Cd1039     O1042   1.966       .  S
Cd1040     O1044   2.131       .  S
Cd1040     O1053   2.067       .  S
Cd1040     O1042   1.964   1_655  S
O1041      C1051   1.268   1_455  A
O1042     Cd1043   1.958       .  S
Cd1043     O1045   2.035       .  S
O1044      C1051   1.289       .  A
C1046      O1050   1.265       .  A
C1046      C1460   1.475       .  S
C1047      C2321   1.493       .  S
C1049      C1385   1.497       .  S
C1051      C2141   1.491       .  S
C1052      O1053   1.275       .  A
C1052      C1400   1.468       .  S
C1054      C1055   1.542       .  S
C1054      C1060   1.540       .  S
C1054      C1058   1.528       .  S
C1054      C1544   1.540       .  S
C1055      H1062   1.085       .  S
C1055      C1056   1.380       .  D
C1056      C1057   1.562       .  S
C1056      C1147   1.501       .  S
C1057      C1061   1.534       .  S
C1057      C1059   1.555       .  S
C1057      H1063   1.108       .  S
C1058      H1064   1.083       .  S
C1058      C1059   1.352       .  D
C1059      C1412   1.489       .  S
C1060      H1065   1.085       .  S
C1060      C1061   1.361       .  D
C1061      C1397   1.489       .  S
C1066      C1067   1.528       .  S
C1066      C1072   1.529       .  S
C1066      C1070   1.551       .  S
C1066      C1949   1.538       .  S
C1067      H1074   1.086       .  S
C1067      C1068   1.364       .  D
C1068      C1069   1.559       .  S
C1068      C1388   1.508       .  S
C1069      C1073   1.539       .  S
C1069      C1071   1.566       .  S
C1069      H1075   1.110       .  S
C1070      H1076   1.082       .  S
C1070      C1071   1.382       .  D
C1071      C1144   1.502       .  S
C1072      H1077   1.089       .  S
C1072      C1073   1.350       .  D
C1073      C1445   1.479       .  S
C1078      C1079   1.524       .  S
C1078      C1084   1.540       .  S
C1078      C1082   1.550       .  S
C1078      C2180   1.547       .  S
C1079      H1086   1.081       .  S
C1079      C1080   1.350       .  D
C1080      C1081   1.552       .  S
C1080      C2936   1.486       .  S
C1081      C1085   1.541       .  S
C1081      C1083   1.559       .  S
C1081      H1087   1.107       .  S
C1082      H1088   1.085       .  S
C1082      C1083   1.381       .  D
C1083      C1127   1.505       .  S
C1084      H1089   1.085       .  S
C1084      C1085   1.365       .  D
C1085      C1424   1.491       .  S
C1090      C1091   1.546       .  S
C1090      C1096   1.532       .  S
C1090      C1094   1.538       .  S
C1090      C2540   1.547       .  S
C1091      H1098   1.085   1_455  S
C1091      C1092   1.384       .  D
C1092      C1093   1.564       .  S
C1092      C1146   1.510       .  S
C1093      C1097   1.533       .  S
C1093      C1095   1.554       .  S
C1093      H1099   1.110       .  S
C1094      H1100   1.076       .  S
C1094      C1095   1.365       .  D
C1095      C1436   1.503       .  S
C1096      H1101   1.088       .  S
C1096      C1097   1.346       .  D
C1097      C2888   1.467       .  S
C1102      C1103   1.542       .  S
C1102      C1108   1.527       .  S
C1102      C1106   1.534       .  S
C1102      C2612   1.534       .  S
C1103      H1110   1.085       .  S
C1103      C1104   1.381       .  D
C1104      C1105   1.570       .  S
C1104      C1141   1.505       .  S
C1105      C1109   1.531       .  S
C1105      C1107   1.560       .  S
C1105      H1111   1.110       .  S
C1106      H1112   1.075       .  S
C1106      C1107   1.367       .  D
C1107      C1592   1.516       .  S
C1108      H1113   1.089       .  S
C1108      C1109   1.345       .  D
C1109      C2960   1.465       .  S
C1114      C1115   1.517       .  S
C1114      C1120   1.528       .  S
C1114      C1118   1.562       .  S
C1114      C1721   1.532       .  S
C1115      H1122   1.089       .  S
C1115      C1116   1.347       .  D
C1116      C1117   1.547       .  S
C1116      C2852   1.474       .  S
C1117      C1121   1.534       .  S
C1117      C1119   1.552       .  S
C1117      H1123   1.111       .  S
C1118      H1124   1.081       .  S
C1118      C1119   1.384       .  D
C1119      C1142   1.495       .  S
C1120      H1125   1.087       .  S
C1120      C1121   1.360       .  D
C1121      C1616   1.471       .  S
O1126      C1142   1.280       .  A
O1126     Zn1132   2.059   1_455  S
C1127      O1143   1.282       .  A
C1127      O1140   1.281       .  A
O1128      C1141   1.284       .  A
O1128     Cd1135   2.133       .  S
O1129      C1147   1.277       .  A
O1129     Cd1138   2.089       .  S
O1130      C1144   1.281       .  A
O1130     Cd1134   2.122   1_556  S
O1131      C1142   1.282       .  A
O1131     Cd1134   2.128       .  S
Zn1132     O1143   2.094   1_554  S
Zn1132     O1145   2.052       .  S
Zn1132     O1137   1.990   1_654  S
O1133      C1144   1.283       .  A
O1133     Cd1138   2.133   1_455  S
Cd1134     O1136   2.113       .  S
Cd1134     O1137   2.039   1_554  S
Cd1135     O1139   2.137   1_655  S
Cd1135     O1148   2.132   1_554  S
Cd1135     O1137   2.046   1_654  S
O1136      C1146   1.280       .  A
O1137     Cd1138   2.032   1_455  S
Cd1138     O1140   2.123       .  S
O1139      C1146   1.284       .  A
C1141      O1145   1.277       .  A
C1147      O1148   1.284       .  A
O1149      C1165   1.275       .  A
O1149     Zn1155   1.993       .  S
C1150      O1166   1.272       .  A
C1150      O1163   1.279       .  A
C1150      C1940   1.456       .  S
O1151      C1164   1.283       .  A
O1151     Cd1158   2.125       .  S
O1152      C1170   1.280       .  A
O1152     Cd1161   2.083       .  S
O1153      C1167   1.279       .  A
O1153     Cd1157   2.099       .  S
O1154      C1165   1.290       .  A
O1154     Cd1157   2.116       .  S
Zn1155     O1166   1.985       .  S
Zn1155     O1168   1.959       .  S
Zn1155     O1160   1.848       .  S
O1156      C1167   1.269       .  A
O1156     Cd1161   2.023       .  S
Cd1157     O1159   2.017       .  S
Cd1157     O1160   1.947       .  S
Cd1158     O1162   2.124       .  S
Cd1158     O1171   2.039       .  S
Cd1158     O1160   1.938       .  S
O1159      C1169   1.269       .  A
O1160     Cd1161   1.961       .  S
Cd1161     O1163   2.075       .  S
O1162      C1169   1.289       .  A
C1164      O1168   1.269       .  A
C1164      C1889   1.477       .  S
C1165      C2096   1.485       .  S
C1167      C1361   1.499       .  S
C1169      C1688   1.490       .  S
C1170      O1171   1.273       .  A
C1170      C1373   1.478       .  S
O1172      C1188   1.272       .  A
O1172     Zn1178   1.974       .  S
C1173      O1189   1.261       .  A
C1173      O1186   1.286       .  A
C1173      C2081   1.489       .  S
O1174      C1187   1.276       .  A
O1174     Cd1181   2.145       .  S
O1175      C1193   1.268       .  A
O1175     Cd1184   2.018       .  S
O1176      C1190   1.269       .  A
O1176     Cd1180   2.040       .  S
O1177      C1188   1.276       .  A
O1177     Cd1180   2.070       .  S
Zn1178     O1189   1.899       .  S
Zn1178     O1191   1.948       .  S
Zn1178     O1183   1.864       .  S
O1179      C1190   1.282       .  A
O1179     Cd1184   2.105       .  S
Cd1180     O1182   2.081       .  S
Cd1180     O1183   1.963       .  S
Cd1181     O1185   2.046       .  S
Cd1181     O1194   2.145       .  S
Cd1181     O1183   1.953       .  S
O1182      C1192   1.278       .  A
O1183     Cd1184   1.960       .  S
Cd1184     O1186   2.138       .  S
O1185      C1192   1.275       .  A
C1187      O1191   1.258       .  A
C1187      C1913   1.497       .  S
C1188      C1880   1.457       .  S
C1190      C1337   1.477       .  S
C1192      C1349   1.483       .  S
C1193      O1194   1.294       .  A
C1193      C1664   1.494       .  S
O1195      C1211   1.266       .  A
O1195     Zn1201   1.949       .  S
C1196      O1212   1.273       .  A
C1196      O1209   1.274       .  A
C1196      C1637   1.453       .  S
O1197      C1210   1.282       .  A
O1197     Cd1204   2.145       .  S
O1198      C1216   1.273       .  A
O1198     Cd1207   2.057       .  S
O1199      C1213   1.280       .  A
O1199     Cd1203   2.109       .  S
O1200      C1211   1.287       .  A
O1200     Cd1203   2.136       .  S
Zn1201     O1212   1.996       .  S
Zn1201     O1214   1.961   1_545  S
Zn1201     O1206   1.873       .  S
O1202      C1213   1.269       .  A
O1202     Cd1207   2.023       .  S
Cd1203     O1205   1.996       .  S
Cd1203     O1206   1.974       .  S
Cd1204     O1208   2.134       .  S
Cd1204     O1217   2.047       .  S
Cd1204     O1206   1.955   1_565  S
O1205      C1215   1.266   1_545  A
O1206     Cd1207   1.971       .  S
Cd1207     O1209   2.047       .  S
O1208      C1215   1.291       .  A
C1210      O1214   1.264       .  A
C1210      C1700   1.501       .  S
C1211      C1469   1.495       .  S
C1213      C1316   1.504       .  S
C1215      C2360   1.484       .  S
C1216      O1217   1.272   1_545  A
C1216      C1325   1.473   1_545  S
C1218      C1219   1.554       .  S
C1218      C1224   1.531       .  S
C1218      C1222   1.514       .  S
C1218      C1508   1.533       .  S
C1219      H1226   1.084       .  S
C1219      C1220   1.388       .  D
C1220      C1221   1.566       .  S
C1220      C1308   1.502       .  S
C1221      C1225   1.535       .  S
C1221      C1223   1.562       .  S
C1221      H1227   1.108       .  S
C1222      H1228   1.089       .  S
C1222      C1223   1.350       .  D
C1223      C1340   1.490       .  S
C1224      H1229   1.087       .  S
C1224      C1225   1.359       .  D
C1225      C2732   1.491       .  S
C1230      C1231   1.556       .  S
C1230      C1236   1.532       .  S
C1230      C1234   1.518       .  S
C1230      C1841   1.534       .  S
C1231      H1238   1.084       .  S
C1231      C1232   1.383       .  D
C1232      C1233   1.560       .  S
C1232      C1306   1.504       .  S
C1233      C1237   1.537       .  S
C1233      C1235   1.554       .  S
C1233      H1239   1.110       .  S
C1234      H1240   1.088       .  S
C1234      C1235   1.349       .  D
C1235      C2420   1.486       .  S
C1236      H1241   1.086       .  S
C1236      C1237   1.363       .  D
C1237      C1328   1.478       .  S
C1242      C1243   1.526       .  S
C1242      C1248   1.523       .  S
C1242      C1246   1.550       .  S
C1242      C2225   1.533       .  S
C1243      H1250   1.083       .  S
C1243      C1244   1.366       .  D
C1244      C1245   1.566       .  S
C1244      C1313   1.520       .  S
C1245      C1249   1.541       .  S
C1245      C1247   1.580       .  S
C1245      H1251   1.108       .  S
C1246      H1252   1.084       .  S
C1246      C1247   1.386       .  D
C1247      C1310   1.519       .  S
C1248      H1253   1.089       .  S
C1248      C1249   1.344       .  D
C1249      C1352   1.475       .  S
C1254      C1255   1.562       .  S
C1254      C1260   1.529       .  S
C1254      C1258   1.523       .  S
C1254      C2972   1.539       .  S
C1255      H1262   1.082       .  S
C1255      C1256   1.389       .  D
C1256      C1257   1.558       .  S
C1256      C1291   1.503       .  S
C1257      C1261   1.535       .  S
C1257      C1259   1.552       .  S
C1257      H1263   1.111       .  S
C1258      H1264   1.089       .  S
C1258      C1259   1.351       .  D
C1259      C1808   1.485       .  S
C1260      H1265   1.087       .  S
C1260      C1261   1.355       .  D
C1261      C1376   1.476       .  S
C1266      C1267   1.532       .  S
C1266      C1272   1.529       .  S
C1266      C1270   1.554       .  S
C1266      C2465   1.539       .  S
C1267      H1274   1.083       .  S
C1267      C1268   1.367       .  D
C1268      C1269   1.564       .  S
C1268      C1364   1.521       .  S
C1269      C1273   1.526       .  S
C1269      C1271   1.571       .  S
C1269      H1275   1.108       .  S
C1270      H1276   1.084   1_565  S
C1270      C1271   1.384       .  D
C1271      C1305   1.517       .  S
C1272      H1277   1.089       .  S
C1272      C1273   1.346       .  D
C1273      C2456   1.462       .  S
C1278      C1279   1.538       .  S
C1278      C1284   1.544       .  S
C1278      C1282   1.538       .  S
C1278      C2756   1.544       .  S
C1279      H1286   1.079       .  S
C1279      C1280   1.359       .  D
C1280      C1281   1.555       .  S
C1280      C2708   1.513       .  S
C1281      C1285   1.524       .  S
C1281      C1283   1.573       .  S
C1281      H1287   1.109       .  S
C1282      H1288   1.085       .  S
C1282      C1283   1.380       .  D
C1283      C1311   1.508       .  S
C1284      H1289   1.087       .  S
C1284      C1285   1.354       .  D
C1285      C1832   1.471       .  S
O1290      C1306   1.283       .  A
O1290     Zn1296   2.101       .  S
C1291      O1307   1.281       .  A
C1291      O1304   1.282       .  A
O1292      C1305   1.289   1_545  A
O1292     Cd1299   2.174       .  S
O1293      C1311   1.278       .  A
O1293     Cd1302   2.099       .  S
O1294      C1308   1.283       .  A
O1294     Cd1298   2.133       .  S
O1295      C1306   1.281       .  A
O1295     Cd1298   2.115   1_565  S
Zn1296     O1307   2.076       .  S
Zn1296     O1309   2.047       .  S
Zn1296     O1301   1.992   1_565  S
O1297      C1308   1.281       .  A
O1297     Cd1302   2.118       .  S
Cd1298     O1300   2.104       .  S
Cd1298     O1301   2.039       .  S
Cd1299     O1303   2.177       .  S
Cd1299     O1312   2.146       .  S
Cd1299     O1301   2.055       .  S
O1300      C1310   1.278       .  A
O1301     Cd1302   2.043       .  S
Cd1302     O1304   2.133   1_545  S
O1303      C1310   1.291       .  A
C1305      O1309   1.277       .  A
C1311      O1312   1.287       .  A
C1313      C1314   1.414       .  A
C1313      C1318   1.412       .  A
C1314      C1315   1.404       .  A
C1314      H1319   1.083       .  S
C1315      C1316   1.411       .  A
C1315      O1320   1.371       .  S
C1316      C1317   1.412       .  A
C1317      C1318   1.411       .  A
C1317      H1321   1.083       .  S
C1318      O1322   1.370       .  S
O1320      H1324   0.992       .  S
O1322      H1323   0.990       .  S
C1325      C1326   1.406       .  A
C1325      C1330   1.408       .  A
C1326      C1327   1.396       .  A
C1326      H1331   1.084       .  S
C1327      C1328   1.405       .  A
C1327      O1332   1.370       .  S
C1328      C1329   1.405       .  A
C1329      C1330   1.395       .  A
C1329      H1333   1.084       .  S
C1330      O1334   1.372   1_565  S
O1332      H1336   0.991       .  S
O1334      H1335   0.992   1_545  S
C1337      C1338   1.398       .  A
C1337      C1342   1.408       .  A
C1338      C1339   1.406       .  A
C1338      H1343   1.084       .  S
C1339      C1340   1.418       .  A
C1339      O1344   1.368       .  S
C1340      C1341   1.405       .  A
C1341      C1342   1.400       .  A
C1341      H1345   1.084       .  S
C1342      O1346   1.371       .  S
O1344      H1348   0.988       .  S
O1346      H1347   0.991       .  S
C1349      C1350   1.403       .  A
C1349      C1354   1.413       .  A
C1350      C1351   1.392       .  A
C1350      H1355   1.084       .  S
C1351      C1352   1.409       .  A
C1351      O1356   1.370       .  S
C1352      C1353   1.403       .  A
C1353      C1354   1.408       .  A
C1353      H1357   1.084       .  S
C1354      O1358   1.376       .  S
O1356      H1360   0.992       .  S
O1358      H1359   0.991       .  S
C1361      C1362   1.410       .  A
C1361      C1366   1.411       .  A
C1362      C1363   1.409       .  A
C1362      H1367   1.083       .  S
C1363      C1364   1.414       .  A
C1363      O1368   1.369       .  S
C1364      C1365   1.413       .  A
C1365      C1366   1.404       .  A
C1365      H1369   1.083       .  S
C1366      O1370   1.372       .  S
O1368      H1372   0.992       .  S
O1370      H1371   0.991       .  S
C1373      C1374   1.401       .  A
C1373      C1378   1.415       .  A
C1374      C1375   1.399       .  A
C1374      H1379   1.083       .  S
C1375      C1376   1.410       .  A
C1375      O1380   1.374       .  S
C1376      C1377   1.396       .  A
C1377      C1378   1.397       .  A
C1377      H1381   1.082       .  S
C1378      O1382   1.372       .  S
O1380      H1384   0.992       .  S
O1382      H1383   0.993       .  S
C1385      C1386   1.410       .  A
C1385      C1390   1.411       .  A
C1386      C1387   1.406       .  A
C1386      H1391   1.083       .  S
C1387      C1388   1.410       .  A
C1387      O1392   1.369       .  S
C1388      C1389   1.411       .  A
C1389      C1390   1.403       .  A
C1389      H1393   1.084       .  S
C1390      O1394   1.372       .  S
O1392      H1396   0.992       .  S
O1394      H1395   0.992       .  S
C1397      C1398   1.408       .  A
C1397      C1402   1.409       .  A
C1398      C1399   1.393       .  A
C1398      H1403   1.084       .  S
C1399      C1400   1.403       .  A
C1399      O1404   1.372       .  S
C1400      C1401   1.404       .  A
C1401      C1402   1.401       .  A
C1401      H1405   1.084       .  S
C1402      O1406   1.370       .  S
O1404      H1408   0.992       .  S
O1406      H1407   0.992       .  S
C1409      C1410   1.399       .  A
C1409      C1414   1.409       .  A
C1410      C1411   1.407       .  A
C1410      H1415   1.084       .  S
C1411      C1412   1.418       .  A
C1411      O1416   1.372       .  S
C1412      C1413   1.404       .  A
C1413      C1414   1.402       .  A
C1413      H1417   1.084       .  S
C1414      O1418   1.371       .  S
O1416      H1420   0.992       .  S
O1418      H1419   0.992       .  S
C1421      C1422   1.403       .  A
C1421      C1426   1.405       .  A
C1422      C1423   1.396       .  A
C1422      H1427   1.082       .  S
C1423      C1424   1.409       .  A
C1423      O1428   1.369       .  S
C1424      C1425   1.411       .  A
C1425      C1426   1.399       .  A
C1425      H1429   1.083       .  S
C1426      O1430   1.372       .  S
O1428      H1432   0.992       .  S
O1430      H1431   0.992       .  S
C1433      C1434   1.405       .  A
C1433      C1438   1.414       .  A
C1434      C1435   1.402       .  A
C1434      H1439   1.083       .  S
C1435      C1436   1.416       .  A
C1435      O1440   1.372       .  S
C1436      C1437   1.402       .  A
C1437      C1438   1.401       .  A
C1437      H1441   1.080       .  S
C1438      O1442   1.372       .  S
O1440      H1444   0.992       .  S
O1442      H1443   0.992       .  S
C1445      C1446   1.400       .  A
C1445      C1450   1.409       .  A
C1446      C1447   1.406       .  A
C1446      H1451   1.084       .  S
C1447      C1448   1.415       .  A
C1447      O1452   1.368   1_556  S
C1448      C1449   1.404       .  A
C1449      C1450   1.397       .  A
C1449      H1453   1.083       .  S
C1450      O1454   1.375       .  S
O1452      H1456   0.992       .  S
O1454      H1455   0.992       .  S
C1457      C1458   1.421       .  A
C1457      C1462   1.399       .  A
C1458      C1459   1.404       .  A
C1458      H1463   1.083       .  S
C1459      C1460   1.398       .  A
C1459      O1464   1.372       .  S
C1460      C1461   1.413       .  A
C1461      C1462   1.403       .  A
C1461      H1465   1.083       .  S
C1462      O1466   1.371       .  S
O1464      H1468   0.992       .  S
O1466      H1467   0.991       .  S
C1469      C1470   1.401       .  A
C1469      C1474   1.421       .  A
C1470      C1471   1.410       .  A
C1470      H1475   1.083       .  S
C1471      C1472   1.421       .  A
C1471      O1476   1.374       .  S
C1472      C1473   1.405       .  A
C1473      C1474   1.400       .  A
C1473      H1477   1.084       .  S
C1474      O1478   1.372       .  S
O1476      H1480   0.993       .  S
O1478      H1479   0.992       .  S
C1481      C1482   1.406       .  A
C1481      C1486   1.412       .  A
C1482      C1483   1.387       .  A
C1482      H1487   1.083       .  S
C1483      C1484   1.401       .  A
C1483      O1488   1.372       .  S
C1484      C1485   1.401       .  A
C1485      C1486   1.401       .  A
C1485      H1489   1.081       .  S
C1486      O1490   1.372       .  S
O1488      H1492   0.991       .  S
O1490      H1491   0.991       .  S
C1493      C1494   1.426       .  A
C1493      C1498   1.409       .  A
C1494      C1495   1.404       .  A
C1494      H1499   1.076       .  S
C1495      C1496   1.399       .  A
C1495      O1500   1.372       .  S
C1496      C1497   1.414       .  A
C1497      C1498   1.401       .  A
C1497      H1501   1.083   1_556  S
C1498      O1502   1.371   1_556  S
O1500      H1504   0.992       .  S
O1502      H1503   0.991       .  S
C1505      C1506   1.385       .  A
C1505      C1510   1.418       .  A
C1506      C1507   1.393       .  A
C1506      H1511   1.084       .  S
C1507      C1508   1.433       .  A
C1507      O1512   1.373       .  S
C1508      C1509   1.400       .  A
C1509      C1510   1.407       .  A
C1509      H1513   1.082       .  S
C1510      O1514   1.372   1_545  S
O1512      H1516   0.992       .  S
O1514      H1515   0.992       .  S
C1517      C1518   1.410       .  A
C1517      C1522   1.397       .  A
C1518      C1519   1.400       .  A
C1518      H1523   1.080       .  S
C1519      C1520   1.402       .  A
C1519      O1524   1.371       .  S
C1520      C1521   1.421       .  A
C1521      C1522   1.396       .  A
C1521      H1525   1.080       .  S
C1522      O1526   1.372       .  S
O1524      H1528   0.992       .  S
O1526      H1527   0.992       .  S
C1529      C1530   1.404       .  A
C1529      C1534   1.406       .  A
C1530      C1531   1.397       .  A
C1530      H1535   1.078       .  S
C1531      C1532   1.408       .  A
C1531      O1536   1.372       .  S
C1532      C1533   1.407       .  A
C1533      C1534   1.399       .  A
C1533      H1537   1.081       .  S
C1534      O1538   1.373       .  S
O1536      H1540   0.992       .  S
O1538      H1539   0.992       .  S
C1541      C1542   1.413       .  A
C1541      C1546   1.404       .  A
C1542      C1543   1.402       .  A
C1542      H1547   1.083       .  S
C1543      C1544   1.409       .  A
C1543      O1548   1.376       .  S
C1544      C1545   1.415       .  A
C1545      C1546   1.401       .  A
C1545      H1549   1.080       .  S
C1546      O1550   1.371       .  S
O1548      H1552   0.993       .  S
O1550      H1551   0.992       .  S
C1553      C1554   1.402       .  A
C1553      C1558   1.412       .  A
C1554      C1555   1.395       .  A
C1554      H1559   1.084       .  S
C1555      C1556   1.414       .  A
C1555      O1560   1.372       .  S
C1556      C1557   1.406       .  A
C1557      C1558   1.412       .  A
C1557      H1561   1.079       .  S
C1558      O1562   1.371       .  S
O1560      H1564   0.992       .  S
O1562      H1563   0.992       .  S
C1565      C1566   1.405       .  A
C1565      C1570   1.412       .  A
C1566      C1567   1.388       .  A
C1566      H1571   1.083       .  S
C1567      C1568   1.403       .  A
C1567      O1572   1.372       .  S
C1568      C1569   1.401       .  A
C1569      C1570   1.399       .  A
C1569      H1573   1.081       .  S
C1570      O1574   1.372       .  S
O1572      H1576   0.992       .  S
O1574      H1575   0.992       .  S
C1577      C1578   1.408       .  A
C1577      C1582   1.405       .  A
C1578      C1579   1.414       .  A
C1578      H1583   1.082       .  S
C1579      C1580   1.413       .  A
C1579      O1584   1.371       .  S
C1580      C1581   1.409       .  A
C1581      C1582   1.392       .  A
C1581      H1585   1.083       .  S
C1582      O1586   1.372       .  S
O1584      H1588   0.991       .  S
O1586      H1587   0.992       .  S
C1589      C1590   1.406       .  A
C1589      C1594   1.416       .  A
C1590      C1591   1.402       .  A
C1590      H1595   1.083       .  S
C1591      C1592   1.420       .  A
C1591      O1596   1.374       .  S
C1592      C1593   1.407       .  A
C1593      C1594   1.409       .  A
C1593      H1597   1.081       .  S
C1594      O1598   1.372       .  S
O1596      H1600   0.992       .  S
O1598      H1599   0.992       .  S
C1601      C1602   1.402       .  A
C1601      C1606   1.401       .  A
C1602      C1603   1.398       .  A
C1602      H1607   1.084       .  S
C1603      C1604   1.404       .  A
C1603      O1608   1.371       .  S
C1604      C1605   1.401       .  A
C1605      C1606   1.388       .  A
C1605      H1609   1.083       .  S
C1606      O1610   1.373       .  S
O1608      H1612   0.991       .  S
O1610      H1611   0.993       .  S
C1613      C1614   1.402       .  A
C1613      C1618   1.412       .  A
C1614      C1615   1.396       .  A
C1614      H1619   1.083       .  S
C1615      C1616   1.409       .  A
C1615      O1620   1.374       .  S
C1616      C1617   1.397       .  A
C1617      C1618   1.396       .  A
C1617      H1621   1.083       .  S
C1618      O1622   1.372       .  S
O1620      H1624   0.993       .  S
O1622      H1623   0.991       .  S
C1625      C1626   1.401       .  A
C1625      C1630   1.404       .  A
C1626      C1627   1.400       .  A
C1626      H1631   1.083       .  S
C1627      C1628   1.410       .  A
C1627      O1632   1.372       .  S
C1628      C1629   1.404       .  A
C1629      C1630   1.393       .  A
C1629      H1633   1.084       .  S
C1630      O1634   1.373       .  S
O1632      H1636   0.992       .  S
O1634      H1635   0.992       .  S
C1637      C1638   1.402       .  A
C1637      C1642   1.399       .  A
C1638      C1639   1.398       .  A
C1638      H1643   1.084       .  S
C1639      C1640   1.404       .  A
C1639      O1644   1.372       .  S
C1640      C1641   1.403       .  A
C1641      C1642   1.389       .  A
C1641      H1645   1.082       .  S
C1642      O1646   1.372       .  S
O1644      H1648   0.992       .  S
O1646      H1647   0.992       .  S
C1649      C1650   1.412       .  A
C1649      C1654   1.410       .  A
C1650      C1651   1.404       .  A
C1650      H1655   1.083       .  S
C1651      C1652   1.411       .  A
C1651      O1656   1.371       .  S
C1652      C1653   1.411       .  A
C1653      C1654   1.404       .  A
C1653      H1657   1.083       .  S
C1654      O1658   1.369       .  S
O1656      H1660   0.991       .  S
O1658      H1659   0.989       .  S
C1661      C1662   1.398       .  A
C1661      C1666   1.429       .  A
C1662      C1663   1.408       .  A
C1662      H1667   1.082       .  S
C1663      C1664   1.428       .  A
C1663      O1668   1.372       .  S
C1664      C1665   1.392       .  A
C1665      C1666   1.395       .  A
C1665      H1669   1.083       .  S
C1666      O1670   1.374       .  S
O1668      H1672   0.992       .  S
O1670      H1671   0.991       .  S
C1673      C1674   1.420       .  A
C1673      C1678   1.412       .  A
C1674      C1675   1.409       .  A
C1674      H1679   1.079       .  S
C1675      C1676   1.408       .  A
C1675      O1680   1.371       .  S
C1676      C1677   1.415       .  A
C1677      C1678   1.405       .  A
C1677      H1681   1.083       .  S
C1678      O1682   1.371   1_554  S
O1680      H1684   0.993       .  S
O1682      H1683   0.992       .  S
C1685      C1686   1.421       .  A
C1685      C1690   1.404       .  A
C1686      C1687   1.394       .  A
C1686      H1691   1.084       .  S
C1687      C1688   1.399       .  A
C1687      O1692   1.372       .  S
C1688      C1689   1.419       .  A
C1689      C1690   1.406       .  A
C1689      H1693   1.083       .  S
C1690      O1694   1.369       .  S
O1692      H1696   0.993       .  S
O1694      H1695   0.992       .  S
C1697      C1698   1.396       .  A
C1697      C1702   1.416       .  A
C1698      C1699   1.400       .  A
C1698      H1703   1.085       .  S
C1699      C1700   1.422       .  A
C1699      O1704   1.376       .  S
C1700      C1701   1.405       .  A
C1701      C1702   1.415       .  A
C1701      H1705   1.083       .  S
C1702      O1706   1.372       .  S
O1704      H1708   0.992   1_565  S
O1706      H1707   0.993       .  S
C1709      C1710   1.425       .  A
C1709      C1714   1.412   1_565  A
C1710      C1711   1.398       .  A
C1710      H1715   1.079       .  S
C1711      C1712   1.398       .  A
C1711      O1716   1.372       .  S
C1712      C1713   1.414   1_565  A
C1713      C1714   1.404       .  A
C1713      H1717   1.083       .  S
C1714      O1718   1.371       .  S
O1716      H1720   0.992       .  S
O1718      H1719   0.992       .  S
C1721      C1722   1.423       .  A
C1721      C1726   1.405       .  A
C1722      C1723   1.397       .  A
C1722      H1727   1.084       .  S
C1723      C1724   1.396       .  A
C1723      O1728   1.372       .  S
C1724      C1725   1.414       .  A
C1725      C1726   1.401       .  A
C1725      H1729   1.084   1_554  S
C1726      O1730   1.368   1_554  S
O1728      H1732   0.992       .  S
O1730      H1731   0.992       .  S
C1733      C1734   1.403       .  A
C1733      C1738   1.408       .  A
C1734      C1735   1.400       .  A
C1734      H1739   1.084       .  S
C1735      C1736   1.412       .  A
C1735      O1740   1.374       .  S
C1736      C1737   1.401       .  A
C1737      C1738   1.403       .  A
C1737      H1741   1.079       .  S
C1738      O1742   1.371       .  S
O1740      H1744   0.992       .  S
O1742      H1743   0.992       .  S
C1745      C1746   1.404       .  A
C1745      C1750   1.416       .  A
C1746      C1747   1.405       .  A
C1746      H1751   1.083       .  S
C1747      C1748   1.417       .  A
C1747      O1752   1.375       .  S
C1748      C1749   1.402       .  A
C1749      C1750   1.404       .  A
C1749      H1753   1.081       .  S
C1750      O1754   1.372       .  S
O1752      H1756   0.993       .  S
O1754      H1755   0.992       .  S
C1757      C1758   1.397       .  A
C1757      C1762   1.412       .  A
C1758      C1759   1.400       .  A
C1758      H1763   1.084       .  S
C1759      C1760   1.410       .  A
C1759      O1764   1.369       .  S
C1760      C1761   1.395       .  A
C1761      C1762   1.392       .  A
C1761      H1765   1.084       .  S
C1762      O1766   1.373       .  S
O1764      H1768   0.992       .  S
O1766      H1767   0.992       .  S
C1769      C1770   1.404       .  A
C1769      C1774   1.415       .  A
C1770      C1771   1.396       .  A
C1770      H1775   1.083       .  S
C1771      C1772   1.409       .  A
C1771      O1776   1.374       .  S
C1772      C1773   1.399       .  A
C1773      C1774   1.404       .  A
C1773      H1777   1.084       .  S
C1774      O1778   1.370   1_554  S
O1776      H1780   0.991       .  S
O1778      H1779   0.992       .  S
C1781      C1782   1.425       .  A
C1781      C1786   1.407       .  A
C1782      C1783   1.400       .  A
C1782      H1787   1.083       .  S
C1783      C1784   1.396       .  A
C1783      O1788   1.372       .  S
C1784      C1785   1.413   1_565  A
C1785      C1786   1.403   1_545  A
C1785      H1789   1.084       .  S
C1786      O1790   1.369   1_565  S
O1788      H1792   0.992       .  S
O1790      H1791   0.992       .  S
C1793      C1794   1.412       .  A
C1793      C1798   1.410       .  A
C1794      C1795   1.417       .  A
C1794      H1799   1.078       .  S
C1795      C1796   1.414       .  A
C1795      O1800   1.371       .  S
C1796      C1797   1.410       .  A
C1797      C1798   1.396       .  A
C1797      H1801   1.083       .  S
C1798      O1802   1.372       .  S
O1800      H1804   0.992       .  S
O1802      H1803   0.992       .  S
C1805      C1806   1.406       .  A
C1805      C1810   1.406       .  A
C1806      C1807   1.404       .  A
C1806      H1811   1.084       .  S
C1807      C1808   1.406       .  A
C1807      O1812   1.372       .  S
C1808      C1809   1.410       .  A
C1809      C1810   1.407       .  A
C1809      H1813   1.082       .  S
C1810      O1814   1.371       .  S
O1812      H1816   0.992       .  S
O1814      H1815   0.992       .  S
C1817      C1818   1.404       .  A
C1817      C1822   1.408       .  A
C1818      C1819   1.398   1_565  A
C1818      H1823   1.084       .  S
C1819      C1820   1.406   1_545  A
C1819      O1824   1.372       .  S
C1820      C1821   1.397       .  A
C1821      C1822   1.389       .  A
C1821      H1825   1.084       .  S
C1822      O1826   1.368       .  S
O1824      H1828   0.992       .  S
O1826      H1827   0.992       .  S
C1829      C1830   1.406       .  A
C1829      C1834   1.414       .  A
C1830      C1831   1.395       .  A
C1830      H1835   1.083       .  S
C1831      C1832   1.406       .  A
C1831      O1836   1.372       .  S
C1832      C1833   1.398       .  A
C1833      C1834   1.397       .  A
C1833      H1837   1.082       .  S
C1834      O1838   1.372       .  S
O1836      H1840   0.992       .  S
O1838      H1839   0.992       .  S
C1841      C1842   1.420       .  A
C1841      C1846   1.408       .  A
C1842      C1843   1.398       .  A
C1842      H1847   1.083       .  S
C1843      C1844   1.400       .  A
C1843      O1848   1.372       .  S
C1844      C1845   1.414       .  A
C1845      C1846   1.405       .  A
C1845      H1849   1.084       .  S
C1846      O1850   1.370       .  S
O1848      H1852   0.992       .  S
O1850      H1851   0.992       .  S
C1853      C1854   1.411       .  A
C1853      C1858   1.412       .  A
C1854      C1855   1.406       .  A
C1854      H1859   1.083       .  S
C1855      C1856   1.413       .  A
C1855      O1860   1.368       .  S
C1856      C1857   1.415       .  A
C1857      C1858   1.407       .  A
C1857      H1861   1.083       .  S
C1858      O1862   1.371       .  S
O1860      H1864   0.990       .  S
O1862      H1863   0.993       .  S
C1865      C1866   1.404       .  A
C1865      C1870   1.406       .  A
C1866      C1867   1.397       .  A
C1866      H1871   1.084       .  S
C1867      C1868   1.405       .  A
C1867      O1872   1.369       .  S
C1868      C1869   1.407       .  A
C1869      C1870   1.395       .  A
C1869      H1873   1.084       .  S
C1870      O1874   1.372       .  S
O1872      H1876   0.991       .  S
O1874      H1875   0.992       .  S
C1877      C1878   1.403       .  A
C1877      C1882   1.408       .  A
C1878      C1879   1.399       .  A
C1878      H1883   1.084       .  S
C1879      C1880   1.405       .  A
C1879      O1884   1.371       .  S
C1880      C1881   1.395       .  A
C1881      C1882   1.390       .  A
C1881      H1885   1.085       .  S
C1882      O1886   1.374       .  S
O1884      H1888   0.992       .  S
O1886      H1887   0.992       .  S
C1889      C1890   1.390       .  A
C1889      C1894   1.415       .  A
C1890      C1891   1.404       .  A
C1890      H1895   1.083       .  S
C1891      C1892   1.426       .  A
C1891      O1896   1.372       .  S
C1892      C1893   1.396       .  A
C1893      C1894   1.405       .  A
C1893      H1897   1.083       .  S
C1894      O1898   1.370       .  S
O1896      H1900   0.993       .  S
O1898      H1899   0.991       .  S
C1901      C1902   1.402       .  A
C1901      C1906   1.418       .  A
C1902      C1903   1.405       .  A
C1902      H1907   1.083       .  S
C1903      C1904   1.422       .  A
C1903      O1908   1.371       .  S
C1904      C1905   1.406       .  A
C1905      C1906   1.401       .  A
C1905      H1909   1.084       .  S
C1906      O1910   1.372       .  S
O1908      H1912   0.991       .  S
O1910      H1911   0.992       .  S
C1913      C1914   1.411       .  A
C1913      C1918   1.407       .  A
C1914      C1915   1.396       .  A
C1914      H1919   1.083       .  S
C1915      C1916   1.409       .  A
C1915      O1920   1.373       .  S
C1916      C1917   1.411       .  A
C1917      C1918   1.412       .  A
C1917      H1921   1.074       .  S
C1918      O1922   1.371       .  S
O1920      H1924   0.991       .  S
O1922      H1923   0.992       .  S
C1925      C1926   1.398       .  A
C1925      C1930   1.430       .  A
C1926      C1927   1.409       .  A
C1926      H1931   1.082       .  S
C1927      C1928   1.422       .  A
C1927      O1932   1.372       .  S
C1928      C1929   1.387       .  A
C1929      C1930   1.386       .  A
C1929      H1933   1.084       .  S
C1930      O1934   1.375       .  S
O1932      H1936   0.992       .  S
O1934      H1935   0.993       .  S
C1937      C1938   1.397       .  A
C1937      C1942   1.413       .  A
C1938      C1939   1.399       .  A
C1938      H1943   1.084       .  S
C1939      C1940   1.406       .  A
C1939      O1944   1.368       .  S
C1940      C1941   1.393       .  A
C1941      C1942   1.392       .  A
C1941      H1945   1.084       .  S
C1942      O1946   1.374       .  S
O1944      H1948   0.992       .  S
O1946      H1947   0.992       .  S
C1949      C1950   1.420       .  A
C1949      C1954   1.407       .  A
C1950      C1951   1.394       .  A
C1950      H1955   1.084       .  S
C1951      C1952   1.400       .  A
C1951      O1956   1.372       .  S
C1952      C1953   1.418       .  A
C1953      C1954   1.409       .  A
C1953      H1957   1.083       .  S
C1954      O1958   1.369       .  S
O1956      H1960   0.992       .  S
O1958      H1959   0.992       .  S
C1961      C1962   1.408       .  A
C1961      C1966   1.415       .  A
C1962      C1963   1.398       .  A
C1962      H1967   1.083       .  S
C1963      C1964   1.411       .  A
C1963      O1968   1.372       .  S
C1964      C1965   1.406       .  A
C1965      C1966   1.414       .  A
C1965      H1969   1.082       .  S
C1966      O1970   1.371       .  S
O1968      H1972   0.992       .  S
O1970      H1971   0.992       .  S
C1973      C1974   1.402       .  A
C1973      C1978   1.404       .  A
C1974      C1975   1.397       .  A
C1974      H1979   1.084       .  S
C1975      C1976   1.406       .  A
C1975      O1980   1.371       .  S
C1976      C1977   1.398       .  A
C1977      C1978   1.389       .  A
C1977      H1981   1.079       .  S
C1978      O1982   1.373       .  S
O1980      H1984   0.992       .  S
O1982      H1983   0.992       .  S
C1985      C1986   1.404       .  A
C1985      C1990   1.403       .  A
C1986      C1987   1.393       .  A
C1986      H1991   1.082       .  S
C1987      C1988   1.404       .  A
C1987      O1992   1.372       .  S
C1988      C1989   1.407       .  A
C1989      C1990   1.399       .  A
C1989      H1993   1.083       .  S
C1990      O1994   1.373       .  S
O1992      H1996   0.991       .  S
O1994      H1995   0.992       .  S
C1997      C1998   1.398       .  A
C1997      C2002   1.430       .  A
C1998      C1999   1.403       .  A
C1998      H2003   1.083       .  S
C1999      C2000   1.415       .  A
C1999      O2004   1.371       .  S
C2000      C2001   1.389       .  A
C2001      C2002   1.403       .  A
C2001      H2005   1.084       .  S
C2002      O2006   1.372       .  S
O2004      H2008   0.991       .  S
O2006      H2007   0.993       .  S
C2009      C2010   1.421       .  A
C2009      C2014   1.398       .  A
C2010      C2011   1.408       .  A
C2010      H2015   1.083       .  S
C2011      C2012   1.404       .  A
C2011      O2016   1.369       .  S
C2012      C2013   1.422       .  A
C2013      C2014   1.396       .  A
C2013      H2017   1.081       .  S
C2014      O2018   1.371       .  S
O2016      H2020   0.992       .  S
O2018      H2019   0.992       .  S
C2021      C2022   1.413       .  A
C2021      C2026   1.408       .  A
C2022      C2023   1.390       .  A
C2022      H2027   1.082       .  S
C2023      C2024   1.396       .  A
C2023      O2028   1.372       .  S
C2024      C2025   1.404       .  A
C2025      C2026   1.403       .  A
C2025      H2029   1.083       .  S
C2026      O2030   1.372       .  S
O2028      H2032   0.992       .  S
O2030      H2031   0.992       .  S
C2033      C2034   1.420       .  A
C2033      C2038   1.404       .  A
C2034      C2035   1.400       .  A
C2034      H2039   1.083       .  S
C2035      C2036   1.400       .  A
C2035      O2040   1.372       .  S
C2036      C2037   1.413       .  A
C2037      C2038   1.406       .  A
C2037      H2041   1.083       .  S
C2038      O2042   1.372       .  S
O2040      H2044   0.992       .  S
O2042      H2043   0.992       .  S
C2045      C2046   1.404       .  A
C2045      C2050   1.422       .  A
C2046      C2047   1.403       .  A
C2046      H2051   1.084   1_556  S
C2047      C2048   1.423       .  A
C2047      O2052   1.372   1_556  S
C2048      C2049   1.402       .  A
C2049      C2050   1.406       .  A
C2049      H2053   1.083       .  S
C2050      O2054   1.370       .  S
O2052      H2056   0.992   1_554  S
O2054      H2055   0.992       .  S
C2057      C2058   1.416       .  A
C2057      C2062   1.407       .  A
C2058      C2059   1.392       .  A
C2058      H2063   1.083       .  S
C2059      C2060   1.398       .  A
C2059      O2064   1.373       .  S
C2060      C2061   1.412       .  A
C2061      C2062   1.409       .  A
C2061      H2065   1.083       .  S
C2062      O2066   1.371       .  S
O2064      H2068   0.990       .  S
O2066      H2067   0.992       .  S
C2069      C2070   1.405       .  A
C2069      C2074   1.415       .  A
C2070      C2071   1.397       .  A
C2070      H2075   1.083       .  S
C2071      C2072   1.410       .  A
C2071      O2076   1.372       .  S
C2072      C2073   1.399       .  A
C2073      C2074   1.401       .  A
C2073      H2077   1.082       .  S
C2074      O2078   1.371       .  S
O2076      H2080   0.992       .  S
O2078      H2079   0.993       .  S
C2081      C2082   1.416       .  A
C2081      C2086   1.402       .  A
C2082      C2083   1.394       .  A
C2082      H2087   1.083       .  S
C2083      C2084   1.405       .  A
C2083      O2088   1.372       .  S
C2084      C2085   1.421       .  A
C2085      C2086   1.403       .  A
C2085      H2089   1.077       .  S
C2086      O2090   1.371       .  S
O2088      H2092   0.991       .  S
O2090      H2091   0.992       .  S
C2093      C2094   1.403       .  A
C2093      C2098   1.428       .  A
C2094      C2095   1.412       .  A
C2094      H2099   1.082       .  S
C2095      C2096   1.420       .  A
C2095      O2100   1.371       .  S
C2096      C2097   1.391       .  A
C2097      C2098   1.390       .  A
C2097      H2101   1.084       .  S
C2098      O2102   1.375       .  S
O2100      H2104   0.992       .  S
O2102      H2103   0.991       .  S
C2105      C2106   1.393       .  A
C2105      C2110   1.426       .  A
C2106      C2107   1.398       .  A
C2106      H2111   1.084       .  S
C2107      C2108   1.429       .  A
C2107      O2112   1.374       .  S
C2108      C2109   1.398       .  A
C2109      C2110   1.406       .  A
C2109      H2113   1.081   1_554  S
C2110      O2114   1.372   1_554  S
O2112      H2116   0.992       .  S
O2114      H2115   0.992       .  S
C2117      C2118   1.398       .  A
C2117      C2122   1.431       .  A
C2118      C2119   1.407       .  A
C2118      H2123   1.082   1_455  S
C2119      C2120   1.424       .  A
C2119      O2124   1.372   1_455  S
C2120      C2121   1.390       .  A
C2121      C2122   1.394       .  A
C2121      H2125   1.084       .  S
C2122      O2126   1.374       .  S
O2124      H2128   0.993       .  S
O2126      H2127   0.991       .  S
C2129      C2130   1.409       .  A
C2129      C2134   1.400       .  A
C2130      C2131   1.387       .  A
C2130      H2135   1.084       .  S
C2131      C2132   1.397       .  A
C2131      O2136   1.373       .  S
C2132      C2133   1.404       .  A
C2133      C2134   1.400       .  A
C2133      H2137   1.083       .  S
C2134      O2138   1.371       .  S
O2136      H2140   0.992       .  S
O2138      H2139   0.992       .  S
C2141      C2142   1.419       .  A
C2141      C2146   1.399       .  A
C2142      C2143   1.406       .  A
C2142      H2147   1.083   1_655  S
C2143      C2144   1.405       .  A
C2143      O2148   1.369   1_655  S
C2144      C2145   1.421       .  A
C2145      C2146   1.395       .  A
C2145      H2149   1.083       .  S
C2146      O2150   1.371       .  S
O2148      H2152   0.991       .  S
O2150      H2151   0.993       .  S
C2153      C2154   1.424       .  A
C2153      C2158   1.401       .  A
C2154      C2155   1.402       .  A
C2154      H2159   1.080       .  S
C2155      C2156   1.395       .  A
C2155      O2160   1.372       .  S
C2156      C2157   1.412       .  A
C2157      C2158   1.406       .  A
C2157      H2161   1.082       .  S
C2158      O2162   1.370       .  S
O2160      H2164   0.992       .  S
O2162      H2163   0.992       .  S
C2165      C2166   1.390       .  A
C2165      C2170   1.417       .  A
C2166      C2167   1.399       .  A
C2166      H2171   1.084       .  S
C2167      C2168   1.429       .  A
C2167      O2172   1.374       .  S
C2168      C2169   1.400       .  A
C2169      C2170   1.404       .  A
C2169      H2173   1.081       .  S
C2170      O2174   1.372       .  S
O2172      H2176   0.992       .  S
O2174      H2175   0.992       .  S
C2177      C2178   1.415       .  A
C2177      C2182   1.403       .  A
C2178      C2179   1.403       .  A
C2178      H2183   1.083       .  S
C2179      C2180   1.407       .  A
C2179      O2184   1.375       .  S
C2180      C2181   1.421       .  A
C2181      C2182   1.405       .  A
C2181      H2185   1.079       .  S
C2182      O2186   1.371       .  S
O2184      H2188   0.992       .  S
O2186      H2187   0.992       .  S
C2189      C2190   1.416   1_455  A
C2189      C2194   1.397       .  A
C2190      C2191   1.404   1_655  A
C2190      H2195   1.083       .  S
C2191      C2192   1.408       .  A
C2191      O2196   1.370   1_455  S
C2192      C2193   1.424       .  A
C2193      C2194   1.396       .  A
C2193      H2197   1.081       .  S
C2194      O2198   1.371       .  S
O2196      H2200   0.992       .  S
O2198      H2199   0.992       .  S
C2201      C2202   1.402       .  A
C2201      C2206   1.421       .  A
C2202      C2203   1.413       .  A
C2202      H2207   1.083       .  S
C2203      C2204   1.417       .  A
C2203      O2208   1.372       .  S
C2204      C2205   1.396       .  A
C2205      C2206   1.398       .  A
C2205      H2209   1.084       .  S
C2206      O2210   1.374       .  S
O2208      H2212   0.992       .  S
O2210      H2211   0.992   1_455  S
C2213      C2214   1.403       .  A
C2213      C2218   1.416       .  A
C2214      C2215   1.395       .  A
C2214      H2219   1.083       .  S
C2215      C2216   1.404       .  A
C2215      O2220   1.366       .  S
C2216      C2217   1.401       .  A
C2217      C2218   1.394       .  A
C2217      H2221   1.084       .  S
C2218      O2222   1.372       .  S
O2220      H2224   0.991       .  S
O2222      H2223   0.992       .  S
C2225      C2226   1.400       .  A
C2225      C2230   1.430       .  A
C2226      C2227   1.408       .  A
C2226      H2231   1.082       .  S
C2227      C2228   1.424       .  A
C2227      O2232   1.371       .  S
C2228      C2229   1.393       .  A
C2229      C2230   1.394       .  A
C2229      H2233   1.084       .  S
C2230      O2234   1.374       .  S
O2232      H2236   0.992       .  S
O2234      H2235   0.992       .  S
C2237      C2238   1.412       .  A
C2237      C2242   1.395       .  A
C2238      C2239   1.404       .  A
C2238      H2243   1.082       .  S
C2239      C2240   1.403       .  A
C2239      O2244   1.371       .  S
C2240      C2241   1.423       .  A
C2241      C2242   1.399       .  A
C2241      H2245   1.082       .  S
C2242      O2246   1.371       .  S
O2244      H2248   0.992       .  S
O2246      H2247   0.992       .  S
C2249      C2250   1.407       .  A
C2249      C2254   1.415       .  A
C2250      C2251   1.419       .  A
C2250      H2255   1.083       .  S
C2251      C2252   1.416       .  A
C2251      O2256   1.374       .  S
C2252      C2253   1.406       .  A
C2253      C2254   1.399       .  A
C2253      H2257   1.084       .  S
C2254      O2258   1.372       .  S
O2256      H2260   0.992       .  S
O2258      H2259   0.992       .  S
C2261      C2262   1.411       .  A
C2261      C2266   1.412       .  A
C2262      C2263   1.405       .  A
C2262      H2267   1.083       .  S
C2263      C2264   1.405       .  A
C2263      O2268   1.370       .  S
C2264      C2265   1.405       .  A
C2265      C2266   1.393       .  A
C2265      H2269   1.084       .  S
C2266      O2270   1.372       .  S
O2268      H2272   0.991       .  S
O2270      H2271   0.992       .  S
C2273      C2274   1.397       .  A
C2273      C2278   1.404       .  A
C2274      C2275   1.390       .  A
C2274      H2279   1.084       .  S
C2275      C2276   1.409       .  A
C2275      O2280   1.371       .  S
C2276      C2277   1.399       .  A
C2277      C2278   1.394       .  A
C2277      H2281   1.084       .  S
C2278      O2282   1.368       .  S
O2280      H2284   0.993       .  S
O2282      H2283   0.992       .  S
C2285      C2286   1.402       .  A
C2285      C2290   1.420       .  A
C2286      C2287   1.407       .  A
C2286      H2291   1.083       .  S
C2287      C2288   1.418       .  A
C2287      O2292   1.370       .  S
C2288      C2289   1.396       .  A
C2289      C2290   1.395       .  A
C2289      H2293   1.085       .  S
C2290      O2294   1.371       .  S
O2292      H2296   0.992       .  S
O2294      H2295   0.992       .  S
C2297      C2298   1.402       .  A
C2297      C2302   1.404       .  A
C2298      C2299   1.401       .  A
C2298      H2303   1.084       .  S
C2299      C2300   1.409       .  A
C2299      O2304   1.370       .  S
C2300      C2301   1.405       .  A
C2301      C2302   1.392       .  A
C2301      H2305   1.084       .  S
C2302      O2306   1.373       .  S
O2304      H2308   0.991       .  S
O2306      H2307   0.993       .  S
C2309      C2310   1.405       .  A
C2309      C2314   1.405       .  A
C2310      C2311   1.399       .  A
C2310      H2315   1.084       .  S
C2311      C2312   1.403       .  A
C2311      O2316   1.371       .  S
C2312      C2313   1.401       .  A
C2313      C2314   1.393       .  A
C2313      H2317   1.083       .  S
C2314      O2318   1.372       .  S
O2316      H2320   0.992       .  S
O2318      H2319   0.992       .  S
C2321      C2322   1.412       .  A
C2321      C2326   1.405       .  A
C2322      C2323   1.406       .  A
C2322      H2327   1.083       .  S
C2323      C2324   1.411       .  A
C2323      O2328   1.374       .  S
C2324      C2325   1.418       .  A
C2325      C2326   1.403       .  A
C2325      H2329   1.077       .  S
C2326      O2330   1.372       .  S
O2328      H2332   0.992       .  S
O2330      H2331   0.992       .  S
C2333      C2334   1.419       .  A
C2333      C2338   1.401       .  A
C2334      C2335   1.405       .  A
C2334      H2339   1.083       .  S
C2335      C2336   1.405       .  A
C2335      O2340   1.368       .  S
C2336      C2337   1.421       .  A
C2337      C2338   1.398       .  A
C2337      H2341   1.084       .  S
C2338      O2342   1.371       .  S
O2340      H2344   0.992   1_545  S
O2342      H2343   0.992       .  S
C2345      C2346   1.405       .  A
C2345      C2350   1.416       .  A
C2346      C2347   1.407       .  A
C2346      H2351   1.084       .  S
C2347      C2348   1.413       .  A
C2347      O2352   1.372       .  S
C2348      C2349   1.399       .  A
C2349      C2350   1.399       .  A
C2349      H2353   1.084       .  S
C2350      O2354   1.370       .  S
O2352      H2356   0.989       .  S
O2354      H2355   0.991       .  S
C2357      C2358   1.426       .  A
C2357      C2362   1.406   1_565  A
C2358      C2359   1.395       .  A
C2358      H2363   1.081       .  S
C2359      C2360   1.396       .  A
C2359      O2364   1.372       .  S
C2360      C2361   1.416   1_565  A
C2361      C2362   1.404       .  A
C2361      H2365   1.084       .  S
C2362      O2366   1.370       .  S
O2364      H2368   0.992       .  S
O2366      H2367   0.992       .  S
C2369      C2370   1.396       .  A
C2369      C2374   1.431       .  A
C2370      C2371   1.401       .  A
C2370      H2375   1.081       .  S
C2371      C2372   1.422       .  A
C2371      O2376   1.372       .  S
C2372      C2373   1.389       .  A
C2373      C2374   1.395       .  A
C2373      H2377   1.084       .  S
C2374      O2378   1.374       .  S
O2376      H2380   0.991       .  S
O2378      H2379   0.991       .  S
C2381      C2382   1.388       .  A
C2381      C2386   1.420       .  A
C2382      C2383   1.394       .  A
C2382      H2387   1.084       .  S
C2383      C2384   1.431       .  A
C2383      O2388   1.374       .  S
C2384      C2385   1.401       .  A
C2385      C2386   1.410       .  A
C2385      H2389   1.082   1_655  S
C2386      O2390   1.371   1_655  S
O2388      H2392   0.992       .  S
O2390      H2391   0.992       .  S
C2393      C2394   1.391       .  A
C2393      C2398   1.421       .  A
C2394      C2395   1.392       .  A
C2394      H2399   1.084       .  S
C2395      C2396   1.430       .  A
C2395      O2400   1.373       .  S
C2396      C2397   1.402       .  A
C2397      C2398   1.409       .  A
C2397      H2401   1.082       .  S
C2398      O2402   1.372       .  S
O2400      H2404   0.993       .  S
O2402      H2403   0.992       .  S
C2405      C2406   1.423       .  A
C2405      C2410   1.395       .  A
C2406      C2407   1.406       .  A
C2406      H2411   1.083       .  S
C2407      C2408   1.400       .  A
C2407      O2412   1.369       .  S
C2408      C2409   1.424       .  A
C2409      C2410   1.391       .  A
C2409      H2413   1.082       .  S
C2410      O2414   1.372       .  S
O2412      H2416   0.992       .  S
O2414      H2415   0.992       .  S
C2417      C2418   1.412       .  A
C2417      C2422   1.408       .  A
C2418      C2419   1.397       .  A
C2418      H2423   1.082       .  S
C2419      C2420   1.401       .  A
C2419      O2424   1.373       .  S
C2420      C2421   1.413       .  A
C2421      C2422   1.413       .  A
C2421      H2425   1.083       .  S
C2422      O2426   1.371       .  S
O2424      H2428   0.991       .  S
O2426      H2427   0.992       .  S
C2429      C2430   1.396       .  A
C2429      C2434   1.411       .  A
C2430      C2431   1.406       .  A
C2430      H2435   1.084       .  S
C2431      C2432   1.419       .  A
C2431      O2436   1.371       .  S
C2432      C2433   1.404       .  A
C2433      C2434   1.403       .  A
C2433      H2437   1.084       .  S
C2434      O2438   1.372       .  S
O2436      H2440   0.992       .  S
O2438      H2439   0.991       .  S
C2441      C2442   1.409       .  A
C2441      C2446   1.412       .  A
C2442      C2443   1.400       .  A
C2442      H2447   1.083       .  S
C2443      C2444   1.404       .  A
C2443      O2448   1.370       .  S
C2444      C2445   1.403       .  A
C2445      C2446   1.395       .  A
C2445      H2449   1.084       .  S
C2446      O2450   1.372       .  S
O2448      H2452   0.991       .  S
O2450      H2451   0.991       .  S
C2453      C2454   1.403       .  A
C2453      C2458   1.402       .  A
C2454      C2455   1.397       .  A
C2454      H2459   1.084       .  S
C2455      C2456   1.403       .  A
C2455      O2460   1.372       .  S
C2456      C2457   1.402       .  A
C2457      C2458   1.391       .  A
C2457      H2461   1.082       .  S
C2458      O2462   1.373       .  S
O2460      H2464   0.991       .  S
O2462      H2463   0.992       .  S
C2465      C2466   1.425       .  A
C2465      C2470   1.409       .  A
C2466      C2467   1.399       .  A
C2466      H2471   1.081       .  S
C2467      C2468   1.399       .  A
C2467      O2472   1.372       .  S
C2468      C2469   1.415       .  A
C2469      C2470   1.406       .  A
C2469      H2473   1.083   1_565  S
C2470      O2474   1.370   1_565  S
O2472      H2476   0.993       .  S
O2474      H2475   0.992       .  S
C2477      C2478   1.420       .  A
C2477      C2482   1.404       .  A
C2478      C2479   1.388       .  A
C2478      H2483   1.083       .  S
C2479      C2480   1.398       .  A
C2479      O2484   1.372       .  S
C2480      C2481   1.419       .  A
C2481      C2482   1.407       .  A
C2481      H2485   1.083   1_545  S
C2482      O2486   1.369   1_545  S
O2484      H2488   0.992       .  S
O2486      H2487   0.992       .  S
C2489      C2490   1.412       .  A
C2489      C2494   1.417       .  A
C2490      C2491   1.415       .  A
C2490      H2495   1.083       .  S
C2491      C2492   1.413       .  A
C2491      O2496   1.369       .  S
C2492      C2493   1.404       .  A
C2493      C2494   1.394       .  A
C2493      H2497   1.084       .  S
C2494      O2498   1.372       .  S
O2496      H2500   0.992       .  S
O2498      H2499   0.992       .  S
C2501      C2502   1.407       .  A
C2501      C2506   1.413       .  A
C2502      C2503   1.403       .  A
C2502      H2507   1.083       .  S
C2503      C2504   1.416       .  A
C2503      O2508   1.372       .  S
C2504      C2505   1.406       .  A
C2505      C2506   1.407       .  A
C2505      H2509   1.079       .  S
C2506      O2510   1.371       .  S
O2508      H2512   0.992   1_565  S
O2510      H2511   0.992       .  S
C2513      C2514   1.402       .  A
C2513      C2518   1.404       .  A
C2514      C2515   1.391       .  A
C2514      H2519   1.084       .  S
C2515      C2516   1.409       .  A
C2515      O2520   1.373   1_565  S
C2516      C2517   1.407       .  A
C2517      C2518   1.397       .  A
C2517      H2521   1.083       .  S
C2518      O2522   1.370       .  S
O2520      H2524   0.993   1_545  S
O2522      H2523   0.991       .  S
C2525      C2526   1.406       .  A
C2525      C2530   1.412       .  A
C2526      C2527   1.396       .  A
C2526      H2531   1.083       .  S
C2527      C2528   1.406       .  A
C2527      O2532   1.371       .  S
C2528      C2529   1.398       .  A
C2529      C2530   1.393       .  A
C2529      H2533   1.075       .  S
C2530      O2534   1.373       .  S
O2532      H2536   0.991       .  S
O2534      H2535   0.992       .  S
C2537      C2538   1.413       .  A
C2537      C2542   1.407       .  A
C2538      C2539   1.403       .  A
C2538      H2543   1.083       .  S
C2539      C2540   1.412       .  A
C2539      O2544   1.371       .  S
C2540      C2541   1.417       .  A
C2541      C2542   1.404       .  A
C2541      H2545   1.078       .  S
C2542      O2546   1.371       .  S
O2544      H2548   0.991   1_455  S
O2546      H2547   0.992       .  S
C2549      C2550   1.412       .  A
C2549      C2554   1.399       .  A
C2550      C2551   1.399       .  A
C2550      H2555   1.084   1_655  S
C2551      C2552   1.407       .  A
C2551      O2556   1.369   1_655  S
C2552      C2553   1.423       .  A
C2553      C2554   1.401       .  A
C2553      H2557   1.083       .  S
C2554      O2558   1.372       .  S
O2556      H2560   0.992       .  S
O2558      H2559   0.992       .  S
C2561      C2562   1.407       .  A
C2561      C2566   1.417       .  A
C2562      C2563   1.408       .  A
C2562      H2567   1.083       .  S
C2563      C2564   1.414       .  A
C2563      O2568   1.374       .  S
C2564      C2565   1.395       .  A
C2565      C2566   1.403       .  A
C2565      H2569   1.079       .  S
C2566      O2570   1.373       .  S
O2568      H2572   0.993       .  S
O2570      H2571   0.991       .  S
C2573      C2574   1.405       .  A
C2573      C2578   1.405       .  A
C2574      C2575   1.408       .  A
C2574      H2579   1.084       .  S
C2575      C2576   1.413       .  A
C2575      O2580   1.370       .  S
C2576      C2577   1.410       .  A
C2577      C2578   1.396       .  A
C2577      H2581   1.083       .  S
C2578      O2582   1.373       .  S
O2580      H2584   0.992       .  S
O2582      H2583   0.992       .  S
C2585      C2586   1.409       .  A
C2585      C2590   1.414       .  A
C2586      C2587   1.402       .  A
C2586      H2591   1.081   1_655  S
C2587      C2588   1.404       .  A
C2587      O2592   1.371       .  S
C2588      C2589   1.400       .  A
C2589      C2590   1.392       .  A
C2589      H2593   1.084       .  S
C2590      O2594   1.372       .  S
O2592      H2596   0.992       .  S
O2594      H2595   0.992       .  S
C2597      C2598   1.393       .  A
C2597      C2602   1.408       .  A
C2598      C2599   1.393       .  A
C2598      H2603   1.084       .  S
C2599      C2600   1.416       .  A
C2599      O2604   1.373       .  S
C2600      C2601   1.398       .  A
C2601      C2602   1.402       .  A
C2601      H2605   1.084       .  S
C2602      O2606   1.368       .  S
O2604      H2608   0.985       .  S
O2606      H2607   0.991       .  S
C2609      C2610   1.411       .  A
C2609      C2614   1.400       .  A
C2610      C2611   1.404       .  A
C2610      H2615   1.083       .  S
C2611      C2612   1.413       .  A
C2611      O2616   1.372       .  S
C2612      C2613   1.422       .  A
C2613      C2614   1.394       .  A
C2613      H2617   1.076       .  S
C2614      O2618   1.372       .  S
O2616      H2620   0.992       .  S
O2618      H2619   0.992       .  S
C2621      C2622   1.421       .  A
C2621      C2626   1.398       .  A
C2622      C2623   1.406       .  A
C2622      H2627   1.083       .  S
C2623      C2624   1.403       .  A
C2623      O2628   1.369       .  S
C2624      C2625   1.422       .  A
C2625      C2626   1.394       .  A
C2625      H2629   1.084       .  S
C2626      O2630   1.371       .  S
O2628      H2632   0.992       .  S
O2630      H2631   0.993       .  S
C2633      C2634   1.406       .  A
C2633      C2638   1.420       .  A
C2634      C2635   1.414       .  A
C2634      H2639   1.083       .  S
C2635      C2636   1.417       .  A
C2635      O2640   1.369       .  S
C2636      C2637   1.400       .  A
C2637      C2638   1.400       .  A
C2637      H2641   1.085       .  S
C2638      O2642   1.371       .  S
O2640      H2644   0.992       .  S
O2642      H2643   0.992       .  S
C2645      C2646   1.407       .  A
C2645      C2650   1.411       .  A
C2646      C2647   1.405       .  A
C2646      H2651   1.083       .  S
C2647      C2648   1.418       .  A
C2647      O2652   1.368       .  S
C2648      C2649   1.413       .  A
C2649      C2650   1.401       .  A
C2649      H2653   1.082       .  S
C2650      O2654   1.372       .  S
O2652      H2656   0.991       .  S
O2654      H2655   0.992       .  S
C2657      C2658   1.403       .  A
C2657      C2662   1.413       .  A
C2658      C2659   1.392       .  A
C2658      H2663   1.084       .  S
C2659      C2660   1.407       .  A
C2659      O2664   1.374       .  S
C2660      C2661   1.401       .  A
C2661      C2662   1.401       .  A
C2661      H2665   1.082       .  S
C2662      O2666   1.371       .  S
O2664      H2668   0.993       .  S
O2666      H2667   0.992       .  S
C2669      C2670   1.402       .  A
C2669      C2674   1.404       .  A
C2670      C2671   1.393       .  A
C2670      H2675   1.084       .  S
C2671      C2672   1.410       .  A
C2671      O2676   1.372       .  S
C2672      C2673   1.407       .  A
C2673      C2674   1.401       .  A
C2673      H2677   1.083       .  S
C2674      O2678   1.371       .  S
O2676      H2680   0.993       .  S
O2678      H2679   0.992       .  S
C2681      C2682   1.420       .  A
C2681      C2686   1.399       .  A
C2682      C2683   1.408       .  A
C2682      H2687   1.083       .  S
C2683      C2684   1.404       .  A
C2683      O2688   1.369       .  S
C2684      C2685   1.422       .  A
C2685      C2686   1.396       .  A
C2685      H2689   1.084       .  S
C2686      O2690   1.371       .  S
O2688      H2692   0.991       .  S
O2690      H2691   0.992       .  S
C2693      C2694   1.389       .  A
C2693      C2698   1.424       .  A
C2694      C2695   1.401       .  A
C2694      H2699   1.084       .  S
C2695      C2696   1.439       .  A
C2695      O2700   1.372       .  S
C2696      C2697   1.401       .  A
C2697      C2698   1.405       .  A
C2697      H2701   1.083       .  S
C2698      O2702   1.372       .  S
O2700      H2704   0.992       .  S
O2702      H2703   0.992       .  S
C2705      C2706   1.414       .  A
C2705      C2710   1.398       .  A
C2706      C2707   1.409       .  A
C2706      H2711   1.082       .  S
C2707      C2708   1.404       .  A
C2707      O2712   1.371       .  S
C2708      C2709   1.422       .  A
C2709      C2710   1.403       .  A
C2709      H2713   1.083       .  S
C2710      O2714   1.371       .  S
O2712      H2716   0.992       .  S
O2714      H2715   0.991       .  S
C2717      C2718   1.411       .  A
C2717      C2722   1.418       .  A
C2718      C2719   1.416       .  A
C2718      H2723   1.083       .  S
C2719      C2720   1.415       .  A
C2719      O2724   1.369       .  S
C2720      C2721   1.404       .  A
C2721      C2722   1.394       .  A
C2721      H2725   1.084       .  S
C2722      O2726   1.372       .  S
O2724      H2728   0.991       .  S
O2726      H2727   0.992       .  S
C2729      C2730   1.407       .  A
C2729      C2734   1.406       .  A
C2730      C2731   1.401       .  A
C2730      H2735   1.084       .  S
C2731      C2732   1.408       .  A
C2731      O2736   1.370       .  S
C2732      C2733   1.408       .  A
C2733      C2734   1.394       .  A
C2733      H2737   1.084       .  S
C2734      O2738   1.372       .  S
O2736      H2740   0.991       .  S
O2738      H2739   0.992       .  S
C2741      C2742   1.401       .  A
C2741      C2746   1.402       .  A
C2742      C2743   1.398       .  A
C2742      H2747   1.079       .  S
C2743      C2744   1.407       .  A
C2743      O2748   1.372       .  S
C2744      C2745   1.404       .  A
C2745      C2746   1.393       .  A
C2745      H2749   1.076       .  S
C2746      O2750   1.373       .  S
O2748      H2752   0.992       .  S
O2750      H2751   0.991       .  S
C2753      C2754   1.412       .  A
C2753      C2758   1.406       .  A
C2754      C2755   1.403       .  A
C2754      H2759   1.083       .  S
C2755      C2756   1.413       .  A
C2755      O2760   1.372       .  S
C2756      C2757   1.416       .  A
C2757      C2758   1.402       .  A
C2757      H2761   1.078       .  S
C2758      O2762   1.372       .  S
O2760      H2764   0.991       .  S
O2762      H2763   0.991       .  S
C2765      C2766   1.421       .  A
C2765      C2770   1.402       .  A
C2766      C2767   1.394       .  A
C2766      H2771   1.084       .  S
C2767      C2768   1.398       .  A
C2767      O2772   1.371       .  S
C2768      C2769   1.420       .  A
C2769      C2770   1.404       .  A
C2769      H2773   1.083       .  S
C2770      O2774   1.369       .  S
O2772      H2776   0.992       .  S
O2774      H2775   0.992       .  S
C2777      C2778   1.421       .  A
C2777      C2782   1.401       .  A
C2778      C2779   1.402       .  A
C2778      H2783   1.081       .  S
C2779      C2780   1.397       .  A
C2779      O2784   1.372       .  S
C2780      C2781   1.411       .  A
C2781      C2782   1.405       .  A
C2781      H2785   1.084       .  S
C2782      O2786   1.371       .  S
O2784      H2788   0.992       .  S
O2786      H2787   0.992       .  S
C2789      C2790   1.405       .  A
C2789      C2794   1.417       .  A
C2790      C2791   1.403       .  A
C2790      H2795   1.083       .  S
C2791      C2792   1.421       .  A
C2791      O2796   1.375       .  S
C2792      C2793   1.405       .  A
C2793      C2794   1.409       .  A
C2793      H2797   1.081       .  S
C2794      O2798   1.371       .  S
O2796      H2800   0.988       .  S
O2798      H2799   0.993       .  S
C2801      C2802   1.401       .  A
C2801      C2806   1.411       .  A
C2802      C2803   1.396       .  A
C2802      H2807   1.084       .  S
C2803      C2804   1.413       .  A
C2803      O2808   1.372       .  S
C2804      C2805   1.396       .  A
C2805      C2806   1.398       .  A
C2805      H2809   1.080       .  S
C2806      O2810   1.372       .  S
O2808      H2812   0.991       .  S
O2810      H2811   0.992       .  S
C2813      C2814   1.391       .  A
C2813      C2818   1.404       .  A
C2814      C2815   1.389       .  A
C2814      H2819   1.084       .  S
C2815      C2816   1.416       .  A
C2815      O2820   1.374       .  S
C2816      C2817   1.399       .  A
C2817      C2818   1.397       .  A
C2817      H2821   1.084       .  S
C2818      O2822   1.369       .  S
O2820      H2824   0.992       .  S
O2822      H2823   0.991       .  S
C2825      C2826   1.421       .  A
C2825      C2830   1.405       .  A
C2826      C2827   1.391       .  A
C2826      H2831   1.081       .  S
C2827      C2828   1.394       .  A
C2827      O2832   1.372       .  S
C2828      C2829   1.417       .  A
C2829      C2830   1.406       .  A
C2829      H2833   1.083       .  S
C2830      O2834   1.369       .  S
O2832      H2836   0.992       .  S
O2834      H2835   0.992       .  S
C2837      C2838   1.413       .  A
C2837      C2842   1.405       .  A
C2838      C2839   1.401       .  A
C2838      H2843   1.083       .  S
C2839      C2840   1.411       .  A
C2839      O2844   1.371       .  S
C2840      C2841   1.417       .  A
C2841      C2842   1.401       .  A
C2841      H2845   1.076       .  S
C2842      O2846   1.371       .  S
O2844      H2848   0.992       .  S
O2846      H2847   0.992       .  S
C2849      C2850   1.404       .  A
C2849      C2854   1.424       .  A
C2850      C2851   1.408       .  A
C2850      H2855   1.083       .  S
C2851      C2852   1.414       .  A
C2851      O2856   1.371       .  S
C2852      C2853   1.393       .  A
C2853      C2854   1.394       .  A
C2853      H2857   1.085       .  S
C2854      O2858   1.374       .  S
O2856      H2860   0.992       .  S
O2858      H2859   0.992       .  S
C2861      C2862   1.405       .  A
C2861      C2866   1.415       .  A
C2862      C2863   1.405       .  A
C2862      H2867   1.079       .  S
C2863      C2864   1.413       .  A
C2863      O2868   1.370       .  S
C2864      C2865   1.405       .  A
C2865      C2866   1.401       .  A
C2865      H2869   1.083       .  S
C2866      O2870   1.372       .  S
O2868      H2872   1.011       .  S
O2870      H2871   0.992       .  S
C2873      C2874   1.403       .  A
C2873      C2878   1.408       .  A
C2874      C2875   1.403       .  A
C2874      H2879   1.084       .  S
C2875      C2876   1.414       .  A
C2875      O2880   1.371       .  S
C2876      C2877   1.402       .  A
C2877      C2878   1.392       .  A
C2877      H2881   1.083       .  S
C2878      O2882   1.369       .  S
O2880      H2884   0.992       .  S
O2882      H2883   0.991       .  S
C2885      C2886   1.406       .  A
C2885      C2890   1.401       .  A
C2886      C2887   1.400       .  A
C2886      H2891   1.084       .  S
C2887      C2888   1.403       .  A
C2887      O2892   1.371       .  S
C2888      C2889   1.404       .  A
C2889      C2890   1.389       .  A
C2889      H2893   1.083       .  S
C2890      O2894   1.372       .  S
O2892      H2896   0.992       .  S
O2894      H2895   0.992       .  S
C2897      C2898   1.420       .  A
C2897      C2902   1.412       .  A
C2898      C2899   1.402       .  A
C2898      H2903   1.074       .  S
C2899      C2900   1.403       .  A
C2899      O2904   1.372       .  S
C2900      C2901   1.411       .  A
C2901      C2902   1.401       .  A
C2901      H2905   1.083       .  S
C2902      O2906   1.374       .  S
O2904      H2908   0.992       .  S
O2906      H2907   0.993       .  S
C2909      C2910   1.416       .  A
C2909      C2914   1.400       .  A
C2910      C2911   1.405       .  A
C2910      H2915   1.083   1_556  S
C2911      C2912   1.407       .  A
C2911      O2916   1.368   1_556  S
C2912      C2913   1.422       .  A
C2913      C2914   1.400       .  A
C2913      H2917   1.084       .  S
C2914      O2918   1.372       .  S
O2916      H2920   0.993   1_554  S
O2918      H2919   0.992       .  S
C2921      C2922   1.407       .  A
C2921      C2926   1.407       .  A
C2922      C2923   1.404       .  A
C2922      H2927   1.084       .  S
C2923      C2924   1.412       .  A
C2923      O2928   1.373       .  S
C2924      C2925   1.408       .  A
C2925      C2926   1.403       .  A
C2925      H2929   1.076       .  S
C2926      O2930   1.372       .  S
O2928      H2932   0.992       .  S
O2930      H2931   0.992       .  S
C2933      C2934   1.403       .  A
C2933      C2938   1.419       .  A
C2934      C2935   1.414       .  A
C2934      H2939   1.083       .  S
C2935      C2936   1.419       .  A
C2935      O2940   1.371       .  S
C2936      C2937   1.397       .  A
C2937      C2938   1.396       .  A
C2937      H2941   1.085       .  S
C2938      O2942   1.370       .  S
O2940      H2944   0.992       .  S
O2942      H2943   0.993       .  S
C2945      C2946   1.401       .  A
C2945      C2950   1.404       .  A
C2946      C2947   1.395       .  A
C2946      H2951   1.084       .  S
C2947      C2948   1.411       .  A
C2947      O2952   1.372   1_556  S
C2948      C2949   1.404       .  A
C2949      C2950   1.398       .  A
C2949      H2953   1.084       .  S
C2950      O2954   1.371       .  S
O2952      H2956   0.992   1_554  S
O2954      H2955   0.992       .  S
C2957      C2958   1.395       .  A
C2957      C2962   1.407       .  A
C2958      C2959   1.390       .  A
C2958      H2963   1.084       .  S
C2959      C2960   1.409       .  A
C2959      O2964   1.371       .  S
C2960      C2961   1.400       .  A
C2961      C2962   1.399       .  A
C2961      H2965   1.084       .  S
C2962      O2966   1.371       .  S
O2964      H2968   0.992       .  S
O2966      H2967   0.992       .  S
C2969      C2970   1.420       .  A
C2969      C2974   1.399       .  A
C2970      C2971   1.409       .  A
C2970      H2975   1.083       .  S
C2971      C2972   1.405       .  A
C2971      O2976   1.369       .  S
C2972      C2973   1.422       .  A
C2973      C2974   1.395       .  A
C2973      H2977   1.084       .  S
C2974      O2978   1.372       .  S
O2976      H2980   0.992       .  S
O2978      H2979   0.993       .  S
C2981      C2982   1.414       .  A
C2981      C2986   1.395       .  A
C2982      C2983   1.403       .  A
C2982      H2987   1.084       .  S
C2983      C2984   1.406       .  A
C2983      O2988   1.369       .  S
C2984      C2985   1.422       .  A
C2985      C2986   1.392       .  A
C2985      H2989   1.083       .  S
C2986      O2990   1.372       .  S
O2988      H2992   0.992       .  S
O2990      H2991   0.991       .  S
C2993      C2994   1.409       .  A
C2993      C2998   1.416       .  A
C2994      C2995   1.402       .  A
C2994      H2999   1.083       .  S
C2995      C2996   1.412       .  A
C2995      O3000   1.376       .  S
C2996      C2997   1.405       .  A
C2997      C2998   1.416       .  A
C2997      H3001   1.081       .  S
C2998      O3002   1.370       .  S
O3000      H3004   0.992       .  S
O3002      H3003   0.992       .  S
C3005      C3006   1.407       .  A
C3005      C3010   1.417       .  A
C3006      C3007   1.405       .  A
C3006      H3011   1.083       .  S
C3007      C3008   1.415       .  A
C3007      O3012   1.375       .  S
C3008      C3009   1.405       .  A
C3009      C3010   1.409       .  A
C3009      H3013   1.081       .  S
C3010      O3014   1.371       .  S
O3012      H3016   0.993       .  S
O3014      H3015   0.992       .  S
C3017      C3018   1.403       .  A
C3017      C3022   1.410       .  A
C3018      C3019   1.392       .  A
C3018      H3023   1.084       .  S
C3019      C3020   1.404       .  A
C3019      O3024   1.374       .  S
C3020      C3021   1.397       .  A
C3021      C3022   1.396       .  A
C3021      H3025   1.081       .  S
C3022      O3026   1.371       .  S
O3024      H3028   0.992       .  S
O3026      H3027   0.991       .  S
C3029      C3030   1.400       .  A
C3029      C3034   1.407       .  A
C3030      C3031   1.397       .  A
C3030      H3035   1.081       .  S
C3031      C3032   1.412       .  A
C3031      O3036   1.372       .  S
C3032      C3033   1.407       .  A
C3033      C3034   1.394       .  A
C3033      H3037   1.083       .  S
C3034      O3038   1.372       .  S
O3036      H3040   0.992       .  S
O3038      H3039   0.993       .  S
