geometry optimzed in LAMMPS
_audit_creation_date              2020-11-30 
_audit_creation_method            'lammps2cif' 
_symmetry_space_group_name_H-M    'P1' 
_symmetry_Int_Tables_number       1 
_symmetry_cell_setting            triclinic 
loop_ 
_symmetry_equiv_pos_as_xyz 
  x,y,z 
_cell_length_a                    45.08209189 
_cell_length_b                    29.198586326865332 
_cell_length_c                    28.957271947862917 
_cell_angle_alpha                 90.62600005625646 
_cell_angle_beta                  89.88827343674181 
_cell_angle_gamma                 89.9713244863623 
loop_ 
_atom_site_label 
_atom_site_type_symbol 
_atom_site_fract_x 
_atom_site_fract_y 
_atom_site_fract_z 
_atom_site_charge 
C1          C  0.99907330  0.24289803  0.12623706     0.80100
N2          N  0.01151882  0.23805137  0.08396088    -0.78200
C3          C  0.00645727  0.20041903  0.05771644     0.82600
N4          N  0.98844026  0.16732925  0.07409613    -0.78100
C5          C  0.97525463  0.17147896  0.11620050     0.82700
N6          N  0.98101370  0.20938479  0.14289758    -0.79900
O7          O  0.76923493  0.89321107  0.12360346    -0.81000
O8          O  0.87326992  0.01921281  0.13670541    -0.65700
O9          O  0.82719866  0.91146217  0.13366998    -1.12300
C10         C  0.80588684  0.93986786  0.28902754     1.05900
O11         O  0.88820287  0.01708143  0.21007357    -0.78900
O12         O  0.87924785  0.92604059  0.23051156    -0.66500
Ni13       Ni  0.80192657  0.89827985  0.08266765     1.34900
C14         C  0.86685889  0.88699616  0.22725156     0.84600
O15         O  0.86614654  0.95359664  0.07317795    -0.79400
O16         O  0.83432271  0.90307729  0.04061337    -0.89700
C17         C  0.88997958  0.03272735  0.16921841     0.84200
O18         O  0.78948631  0.95852256  0.06841275    -0.67900
O19         O  0.83309388  0.95208853  0.28873377    -0.87200
C20         C  0.79784922  0.99795017  0.08146719     0.85000
C21         C  0.85803868  0.92693268  0.04010433     1.06600
H22         H  0.81922119  0.00194394  0.19401576     0.38400
O23         O  0.83230026  0.97571963  0.19419302    -1.09900
O24         O  0.83916927  0.88257878  0.21966268    -0.66500
Ni25       Ni  0.80900183  0.92071306  0.19285461     1.26300
O26         O  0.81974279  0.00447482  0.10819503    -0.66700
O27         O  0.79161712  0.93190601  0.25200629    -0.79000
C28         C  0.77087763  0.86006671  0.15098213     0.84400
O29         O  0.78630305  0.86508260  0.18715364    -0.66200
Ni30       Ni  0.85927689  0.98229211  0.24507148     1.27400
Ni31       Ni  0.84978767  0.96570088  0.13388806     1.26100
H32         H  0.84093761  0.88615181  0.13532351     0.39000
C33         C  0.74990886  0.66878534  0.96850614     0.80100
N34         N  0.75702418  0.70118015  0.00072051    -0.78200
C35         C  0.74300337  0.70240138  0.04224003     0.82600
N36         N  0.72195978  0.67086062  0.05179532    -0.78100
C37         C  0.71488684  0.63770521  0.02054230     0.82700
N38         N  0.72886640  0.63687230  0.97873126    -0.79900
C39         C  0.92477079  0.73019583  0.29854608     0.80100
N40         N  0.94776024  0.70288452  0.28550061    -0.78200
C41         C  0.95748223  0.66968417  0.31453115     0.82600
N42         N  0.94427873  0.66434459  0.35636905    -0.78100
C43         C  0.92148823  0.69175904  0.36946417     0.82700
N44         N  0.91176216  0.72432884  0.34023153    -0.79900
O45         O  0.16407242  0.38992376  0.29601832    -0.81000
O46         O  0.06690752  0.52632007  0.29725906    -0.65700
O47         O  0.10697177  0.41292347  0.29485155    -1.12300
C48         C  0.12758759  0.44983633  0.13829139     1.05900
O49         O  0.04600161  0.51671691  0.22866191    -0.78900
O50         O  0.05639812  0.43729309  0.18313049    -0.66500
Ni51       Ni  0.13446769  0.39824339  0.34191061     1.34900
C52         C  0.06339624  0.39641422  0.19309887     0.84600
O53         O  0.07263281  0.45911988  0.35971096    -0.79400
O54         O  0.10472055  0.40708276  0.38803028    -0.89700
C55         C  0.04760657  0.53707185  0.26765150     0.84200
O56         O  0.15060434  0.45669807  0.35580593    -0.67900
O57         O  0.10528964  0.47650610  0.14161745    -0.87200
C58         C  0.14273914  0.49659996  0.34472402     0.85000
C59         C  0.08161623  0.43228889  0.39169453     1.06600
H60         H  0.11862485  0.49992543  0.23709884     0.38400
O61         O  0.10317627  0.47702265  0.23631998    -1.09900
O62         O  0.08814100  0.38565198  0.21107375    -0.66500
Ni63       Ni  0.12232953  0.41829114  0.23333503     1.26300
O64         O  0.11976567  0.50485499  0.32119502    -0.66700
O65         O  0.13693722  0.42520181  0.17136723    -0.79000
C66         C  0.15966159  0.35542621  0.27044100     0.84400
O67         O  0.14193488  0.35964699  0.23676835    -0.66200
Ni68       Ni  0.07686011  0.49442022  0.18791704     1.27400
Ni69       Ni  0.08728686  0.46962902  0.29765138     1.26100
H70         H  0.09201386  0.38924067  0.29523862     0.39000
C71         C  0.18605622  0.18017556  0.46541766     0.80100
N72         N  0.17666370  0.20940357  0.43195804    -0.78200
C73         C  0.19093200  0.21052422  0.39038404     0.82600
N74         N  0.21410493  0.18204330  0.38230688    -0.78100
C75         C  0.22340118  0.15240068  0.41482107     0.82700
N76         N  0.20934171  0.15180644  0.45634175    -0.79900
C77         C  0.01452152  0.38020865  0.63700785     0.80100
N78         N  0.99063034  0.40618275  0.64877264    -0.78200
C79         C  0.98090166  0.43919172  0.61947671     0.82600
N80         N  0.99509726  0.44555404  0.57841931    -0.78100
C81         C  0.01894099  0.41952865  0.56657534     0.82700
N82         N  0.02845474  0.38723047  0.59632592    -0.79900
O83         O  0.88691889  0.58499052  0.70795417    -0.81000
O84         O  0.78817189  0.74137712  0.68651106    -0.65700
O85         O  0.83183847  0.62855360  0.69429441    -1.12300
C86         C  0.85720071  0.67206278  0.53981207     1.05900
O87         O  0.76981215  0.70968008  0.62487554    -0.78900
O88         O  0.78887921  0.64430420  0.56717804    -0.66500
Ni89       Ni  0.85919807  0.62136060  0.74419262     1.34900
C90         C  0.79537592  0.60487418  0.58170313     0.84600
O91         O  0.79307753  0.67631634  0.75248796    -0.79400
O92         O  0.83424821  0.65378007  0.78858623    -0.89700
C93         C  0.77144600  0.74406623  0.65145294     0.84200
O94         O  0.88036518  0.67577046  0.72953319    -0.67900
O95         O  0.83450472  0.69824594  0.54132295    -0.87200
C96         C  0.86945264  0.71569840  0.72595014     0.85000
C97         C  0.80716829  0.66653845  0.78904352     1.06600
H98         H  0.84239160  0.71512297  0.63414501     0.38400
O99         O  0.82782246  0.69088117  0.63330102    -1.09900
O100        O  0.81651108  0.59784945  0.60960114    -0.66500
Ni101      Ni  0.84844470  0.63481294  0.63321326     1.26300
O102        O  0.84193131  0.72267333  0.71824471    -0.66700
O103        O  0.86413337  0.64379733  0.57163937    -0.79000
C104        C  0.88741225  0.56689109  0.66767911     0.84400
O105        O  0.86997168  0.57926234  0.63589865    -0.66200
Ni106      Ni  0.80219841  0.70400187  0.58328723     1.27400
Ni107      Ni  0.81018462  0.68508569  0.69292448     1.26100
H108        H  0.81793108  0.60340355  0.69505644     0.39000
C109        C  0.74840004  0.92907590  0.46782956     0.80100
N110        N  0.72743200  0.96119465  0.47777287    -0.78200
C111        C  0.71349248  0.96169102  0.51945275     0.82600
N112        N  0.72027610  0.92920155  0.55085920    -0.78100
C113        C  0.74124143  0.89722990  0.54147848     0.82700
N114        N  0.75550009  0.89727768  0.50002394    -0.79900
C115        C  0.92633620  0.87471574  0.79562278     0.80100
N116        N  0.91380206  0.87883835  0.83799392    -0.78200
C117        C  0.92037196  0.91465198  0.86622447     0.82600
N118        N  0.94024829  0.94621120  0.85186483    -0.78100
C119        C  0.95333110  0.94247351  0.80963938     0.82700
N120        N  0.94613256  0.90669309  0.78108659    -0.79900
O121        O  0.04549926  0.09344663  0.72499821    -0.81000
O122        O  0.15268421  0.23592506  0.75045805    -0.65700
O123        O  0.10310774  0.12901596  0.73932084    -1.12300
C124        C  0.07626630  0.17807693  0.89281470     1.05900
O125        O  0.16622891  0.20301625  0.81345536    -0.78900
O126        O  0.14220389  0.14429442  0.87245186    -0.66500
Ni127      Ni  0.07537551  0.12590736  0.68944050     1.34900
C128        C  0.13610328  0.10495597  0.85658086     0.84600
O129        O  0.14468540  0.17171631  0.68258982    -0.79400
O130        O  0.10238195  0.15477195  0.64589729    -0.89700
C131        C  0.16755077  0.23743548  0.78765642     0.84200
O132        O  0.05745200  0.18334880  0.70528560    -0.67900
O133        O  0.09881403  0.20456247  0.89203763    -0.87200
C134        C  0.07098004  0.22146896  0.70818933     0.85000
C135        C  0.12989316  0.16545410  0.64560460     1.06600
H136        H  0.09491249  0.21665887  0.79913242     0.38400
O137        O  0.10871684  0.19145838  0.80103601    -1.09900
O138        O  0.11708507  0.09855088  0.82478717    -0.66500
Ni139      Ni  0.08637869  0.13729937  0.80016230     1.26300
O140        O  0.09880073  0.22384231  0.71570029    -0.66700
O141        O  0.07032855  0.14822304  0.86135848    -0.79000
C142        C  0.04467007  0.07421711  0.76437432     0.84400
O143        O  0.06312550  0.08365483  0.79603557    -0.66200
Ni144      Ni  0.13277775  0.20425095  0.85290101     1.27400
Ni145      Ni  0.12759860  0.18264431  0.74217177     1.26100
H146        H  0.11555859  0.10207599  0.73815113     0.39000
C147        C  0.18243943  0.44298849  0.95754254     0.80100
N148        N  0.17931767  0.40516725  0.93019089    -0.78200
C149        C  0.19230068  0.40323135  0.88779720     0.82600
N150        N  0.20919160  0.43862859  0.87333420    -0.78100
C151        C  0.21310831  0.47610012  0.90080582     0.82700
N152        N  0.19941814  0.47832304  0.94262475    -0.79900
C153        C  0.41868041  0.72615918  0.13057352     0.80100
N154        N  0.44120641  0.69867508  0.14463515    -0.78200
C155        C  0.45235934  0.66602043  0.11534926     0.82600
N156        N  0.44105853  0.66170118  0.07197021    -0.78100
C157        C  0.41884978  0.68951622  0.05785356     0.82700
N158        N  0.40784641  0.72162201  0.08727069    -0.79900
O159        O  0.54540790  0.52397996  0.20829099    -0.81000
O160        O  0.63979751  0.36081410  0.19348443    -0.65700
O161        O  0.59986095  0.47707433  0.19679552    -1.12300
C162        C  0.57472693  0.42764772  0.04283619     1.05900
O163        O  0.65987591  0.38866717  0.13178359    -0.78900
O164        O  0.64380600  0.45202886  0.07147164    -0.66500
Ni165      Ni  0.57279794  0.48994396  0.24661017     1.34900
C166        C  0.63744083  0.49265168  0.08324417     0.84600
O167        O  0.63655027  0.42878201  0.25736323    -0.79400
O168        O  0.59730612  0.46016849  0.29286508    -0.89700
C169        C  0.65705229  0.35575873  0.15921965     0.84200
O170        O  0.55009865  0.43575947  0.23664474    -0.67900
O171        O  0.59699004  0.40059852  0.04522757    -0.87200
C172        C  0.55965321  0.39499697  0.23258894     0.85000
C173        C  0.62315064  0.44225117  0.29368117     1.06600
H174        H  0.58742006  0.38786800  0.13911318     0.38400
O175        O  0.60253680  0.41126775  0.13789080    -1.09900
O176        O  0.61592608  0.50220536  0.11014926    -0.66500
Ni177      Ni  0.58324209  0.46815420  0.13584221     1.26300
O178        O  0.58667446  0.38551270  0.22344912    -0.66700
O179        O  0.56741861  0.45618463  0.07487431    -0.79000
C180        C  0.54512745  0.53917217  0.16713027     0.84400
O181        O  0.56286213  0.52473735  0.13632530    -0.66200
Ni182      Ni  0.62837642  0.39428415  0.08882463     1.27400
Ni183      Ni  0.61972645  0.41896228  0.19770603     1.26100
H184        H  0.61459728  0.50108253  0.19633763     0.39000
C185        C  0.68440848  0.17225423  0.97273140     0.80100
N186        N  0.67539029  0.20240939  0.00611570    -0.78200
C187        C  0.68940890  0.20361039  0.04770151     0.82600
N188        N  0.71203911  0.17437671  0.05601788    -0.78100
C189        C  0.72064034  0.14334889  0.02352903     0.82700
N190        N  0.70688387  0.14276272  0.98185480    -0.79900
C191        C  0.50269293  0.24044735  0.30566694     0.80100
N192        N  0.48405054  0.20693122  0.29083498    -0.78200
C193        C  0.47910327  0.16982117  0.31782571     0.82600
N194        N  0.49343947  0.16621311  0.35894135    -0.78100
C195        C  0.51257085  0.19914104  0.37342738     0.82700
N196        N  0.51682378  0.23631446  0.34664760    -0.79900
O197        O  0.39142255  0.01423953  0.22851344    -0.81000
O198        O  0.28089147  0.87658942  0.25059940    -0.65700
O199        O  0.33356500  0.97983526  0.24203433    -1.12300
C200        C  0.35880334  0.92801338  0.39444434     1.05900
O201        O  0.26855062  0.91222015  0.31357422    -0.78900
O202        O  0.29429832  0.96744160  0.37513270    -0.66500
Ni203      Ni  0.36106835  0.98313443  0.19206726     1.34900
C204        C  0.30130160  0.00595901  0.35906932     0.84600
O205        O  0.29097718  0.94026810  0.18407827    -0.79400
O206        O  0.33366722  0.95591804  0.14793704    -0.89700
C207        C  0.26546322  0.87780925  0.28741834     0.84200
O208        O  0.37764358  0.92471653  0.20560087    -0.67900
O209        O  0.33536874  0.90345389  0.39240490    -0.87200
C210        C  0.36360622  0.88693771  0.20633651     0.85000
C211        C  0.30603064  0.94630157  0.14735536     1.06600
H212        H  0.33934603  0.89087134  0.29915568     0.38400
O213        O  0.32639784  0.91713936  0.30168017    -1.09900
O214        O  0.32054040  0.01037513  0.32744633    -0.66500
Ni215      Ni  0.35015786  0.96961180  0.30238213     1.26300
O216        O  0.33578807  0.88496098  0.21491161    -0.66700
O217        O  0.36606562  0.95693394  0.36328564    -0.79000
C218        C  0.39241744  0.03213993  0.26893217     0.84400
O219        O  0.37423629  0.02185659  0.30035128    -0.66200
Ni220      Ni  0.30164550  0.90704696  0.35323003     1.27400
Ni221      Ni  0.30781772  0.92767426  0.24320375     1.26100
H222        H  0.32167080  0.00732810  0.24206887     0.39000
C223        C  0.24639207  0.68305243  0.46133418     0.80100
N224        N  0.22859151  0.64780964  0.44821846    -0.78200
C225        C  0.21475132  0.64804214  0.40660018     0.82600
N226        N  0.21869187  0.68420364  0.37821922    -0.78100
C227        C  0.23594854  0.71992398  0.39125690     0.82700
N228        N  0.24995737  0.71932277  0.43283388    -0.79900
C229        C  0.50136311  0.36627038  0.80574759     0.80100
N230        N  0.51534040  0.37380885  0.84631091    -0.78200
C231        C  0.50811766  0.40993472  0.87364395     0.82600
N232        N  0.48622978  0.43880541  0.86023532    -0.78100
C233        C  0.47191829  0.43202471  0.81924957     0.82700
N234        N  0.47979875  0.39564110  0.79172157    -0.79900
O235        O  0.27377426  0.72370241  0.79834650    -0.81000
O236        O  0.36692544  0.58173210  0.79215503    -0.65700
O237        O  0.33025091  0.69768590  0.78996306    -1.12300
C238        C  0.30664204  0.66553960  0.63619775     1.05900
O239        O  0.38398206  0.58048256  0.71990567    -0.78900
O240        O  0.38061219  0.66958989  0.69211212    -0.66500
Ni241      Ni  0.30572256  0.71690129  0.83999192     1.34900
C242        C  0.37166945  0.71080380  0.69504336     0.84600
O243        O  0.36460190  0.65078739  0.85258310    -0.79400
O244        O  0.33779740  0.70972297  0.88205412    -0.89700
C245        C  0.38415649  0.56585338  0.76134314     0.84200
O246        O  0.28894894  0.66020596  0.85816159    -0.67900
O247        O  0.33245513  0.64730231  0.63639830    -0.87200
C248        C  0.29342059  0.61946070  0.84471883     0.85000
C249        C  0.35917919  0.68107293  0.88377173     1.06600
H250        H  0.31545039  0.60741638  0.73298447     0.38400
O251        O  0.33058151  0.63080863  0.73203665    -1.09900
O252        O  0.34470023  0.72129876  0.70314060    -0.66500
Ni253      Ni  0.31173250  0.68978303  0.73117342     1.26300
O254        O  0.31463506  0.60849096  0.81796813    -0.66700
O255        O  0.29374468  0.67945875  0.67274927    -0.79000
C256        C  0.27720687  0.75621950  0.77072115     0.84400
O257        O  0.29298772  0.74917141  0.73512248    -0.66200
Ni258      Ni  0.35695815  0.61630000  0.68199892     1.27400
Ni259      Ni  0.34809741  0.63959433  0.79217822     1.26100
H260        H  0.34590547  0.72013655  0.78760171     0.39000
C261        C  0.25256467  0.93547877  0.96524839     0.80100
N262        N  0.26223627  0.90614557  0.93133945    -0.78200
C263        C  0.24845944  0.90515296  0.88943167     0.82600
N264        N  0.22539956  0.93362372  0.88160832    -0.78100
C265        C  0.21570643  0.96310506  0.91460078     0.82700
N266        N  0.22937705  0.96389631  0.95634426    -0.79900
C267        C  0.43783261  0.85856090  0.62434854     0.80100
N268        N  0.42481828  0.86394522  0.58275243    -0.78200
C269        C  0.43219906  0.89932475  0.55518505     0.82600
N270        N  0.45319047  0.92946669  0.56954165    -0.78100
C271        C  0.46625402  0.92463528  0.61157035     0.82700
N272        N  0.45822234  0.88941561  0.63937846    -0.79900
O273        O  0.66405539  0.21469231  0.63548726    -0.81000
O274        O  0.56433901  0.08379873  0.63498999    -0.65700
O275        O  0.60652128  0.19468887  0.63978809    -1.12300
C276        C  0.62693091  0.16112765  0.79434851     1.05900
O277        O  0.54883529  0.08071071  0.70794896    -0.78900
O278        O  0.55373328  0.16995046  0.73831308    -0.66500
Ni279      Ni  0.63329383  0.20936481  0.59127937     1.34900
C280        C  0.56375841  0.21059962  0.73625241     0.84600
O281        O  0.56996613  0.15272166  0.57578751    -0.79400
O282        O  0.60248467  0.20357081  0.54648206    -0.89700
C283        C  0.54837286  0.06650008  0.66616794     0.84200
O284        O  0.64802741  0.15052925  0.57468268    -0.67900
O285        O  0.60083158  0.14440016  0.79295651    -0.87200
C286        C  0.63948875  0.11052329  0.58428923     0.85000
C287        C  0.57882035  0.17955685  0.54375805     1.06600
H288        H  0.61724494  0.10373771  0.69463414     0.38400
O289        O  0.60284676  0.12820794  0.69646605    -1.09900
O290        O  0.59086361  0.21938553  0.72691665    -0.66500
Ni291      Ni  0.62355736  0.18553694  0.69944063     1.26300
O292        O  0.61684641  0.10288735  0.60900891    -0.66700
O293        O  0.64058269  0.17416351  0.75844260    -0.79000
C294        C  0.66085142  0.24831005  0.66264054     0.84400
O295        O  0.64409949  0.24330378  0.69734608    -0.66200
Ni296      Ni  0.57616991  0.11517965  0.74642551     1.27400
Ni297      Ni  0.58575296  0.13911877  0.63625617     1.26100
H298        H  0.59214879  0.21920232  0.64156935     0.39000
C299        C  0.68164128  0.42796892  0.47135122     0.80100
N300        N  0.67390836  0.39682718  0.50401082    -0.78200
C301        C  0.68862319  0.39592362  0.54506533     0.82600
N302        N  0.71047932  0.42654050  0.55363217    -0.78100
C303        C  0.71789700  0.45838521  0.52203748     0.82700
N304        N  0.70357937  0.45863061  0.48079177    -0.79900
C305        C  0.69809814  0.30067556  0.63060623    -0.21400
C306        C  0.66883466  0.29349534  0.64512125    -0.09500
C307        C  0.64623062  0.32251009  0.62912111     0.29400
C308        C  0.65266295  0.35602812  0.59638101    -0.21400
C309        C  0.68176515  0.36167109  0.58032463    -0.09500
C310        C  0.70465969  0.33496378  0.59899298     0.29400
F311        F  0.73304707  0.33976362  0.58407905    -0.20000
H312        H  0.71557337  0.27772549  0.64149893     0.17800
H313        H  0.63489357  0.37695803  0.58289721     0.17800
F314        F  0.61757744  0.31552726  0.64172310    -0.20000
C315        C  0.50812606  0.01049288  0.68530798    -0.21400
C316        C  0.52815294  0.02856956  0.65293282    -0.09500
C317        C  0.52841839  0.01019455  0.60761992     0.29400
C318        C  0.50844719  0.97597083  0.59492937    -0.21400
C319        C  0.48822371  0.95862918  0.62701055    -0.09500
C320        C  0.48837936  0.97566702  0.67257791     0.29400
F321        F  0.46858044  0.96022775  0.70416758    -0.20000
H322        H  0.50738870  0.02375977  0.72036194     0.17800
H323        H  0.50878994  0.96290285  0.55976064     0.17800
F324        F  0.54782423  0.02519328  0.57521992    -0.20000
C325        C  0.24083823  0.81351432  0.79722408    -0.21400
C326        C  0.27045008  0.80229418  0.78815464    -0.09500
C327        C  0.29313948  0.82757142  0.80992104     0.29400
C328        C  0.28612383  0.86159691  0.84266149    -0.21400
C329        C  0.25640838  0.87133933  0.85324833    -0.09500
C330        C  0.23379180  0.84813454  0.82897947     0.29400
F331        F  0.20478498  0.85625450  0.83874398    -0.20000
H332        H  0.22313952  0.79324964  0.78212044     0.17800
H333        H  0.30382306  0.87945983  0.86055887     0.17800
F334        F  0.32200720  0.81621801  0.80290388    -0.20000
C335        C  0.41804228  0.73968517  0.65836743    -0.21400
C336        C  0.39291545  0.74821111  0.68596231    -0.09500
C337        C  0.38686837  0.79350541  0.70053901     0.29400
C338        C  0.40408229  0.82969077  0.68425924    -0.21400
C339        C  0.42740510  0.82123020  0.65336598    -0.09500
C340        C  0.43498684  0.77599504  0.64172974     0.29400
F341        F  0.45729241  0.76725503  0.61133255    -0.20000
H342        H  0.42331442  0.70521792  0.64682879     0.17800
H343        H  0.39776551  0.86456402  0.69289688     0.17800
F344        F  0.36342088  0.80314456  0.72845807    -0.20000
C345        C  0.50271407  0.28277404  0.79096444    -0.20600
C346        C  0.51120600  0.32691716  0.77770235    -0.09500
C347        C  0.53511041  0.33214901  0.74716803     0.29400
C348        C  0.55112761  0.29384432  0.73183869    -0.21400
C349        C  0.54368762  0.24964808  0.74690770    -0.09500
C350        C  0.51861796  0.24431431  0.77555915     0.29400
F351        F  0.51094285  0.20255855  0.79192396    -0.20000
H352        H  0.48499285  0.27835869  0.81585332     0.17800
H353        H  0.57024719  0.29901974  0.70979639     0.17800
F354        F  0.54453867  0.37459587  0.73538519    -0.20000
C355        C  0.44045271  0.46800519  0.75759673    -0.21400
C356        C  0.44862723  0.46499083  0.80438365    -0.09500
C357        C  0.43479107  0.49467251  0.83657545     0.29400
C358        C  0.41369810  0.52651913  0.82214373    -0.21400
C359        C  0.40592873  0.53022996  0.77530927    -0.09500
C360        C  0.41951696  0.50042277  0.74306828     0.29400
F361        F  0.41241750  0.50220212  0.69760664    -0.20000
H362        H  0.45065358  0.44574534  0.73196770     0.17800
H363        H  0.40375465  0.54898022  0.84787629     0.17800
F364        F  0.44137548  0.49297113  0.88225689    -0.20000
C365        C  0.24570451  0.67131395  0.54623060    -0.21400
C366        C  0.26182347  0.68120541  0.50611206    -0.09500
C367        C  0.29274826  0.68646620  0.50888138     0.29400
C368        C  0.30731618  0.68091168  0.55118043    -0.21400
C369        C  0.29116713  0.67134277  0.59153212    -0.09500
C370        C  0.26009405  0.66712002  0.58871723     0.29400
F371        F  0.24369571  0.65740428  0.62673595    -0.20000
H372        H  0.22186648  0.66687926  0.54461169     0.17800
H373        H  0.33121925  0.68441745  0.55248950     0.17800
F374        F  0.30894519  0.69516843  0.47040162    -0.20000
C375        C  0.30728174  0.92125271  0.06455546    -0.21400
C376        C  0.29157198  0.94116641  0.10167868    -0.09500
C377        C  0.26287301  0.95802895  0.09388599     0.29400
C378        C  0.25051512  0.95588973  0.04958328    -0.21400
C379        C  0.26621655  0.93619861  0.01214537    -0.09500
C380        C  0.29472359  0.91826797  0.02037242     0.29400
F381        F  0.31087543  0.89895531  0.98568407    -0.20000
H382        H  0.32944544  0.90794695  0.06980761     0.17800
H383        H  0.22850561  0.96985630  0.04465071     0.17800
F384        F  0.24723740  0.97833654  0.12860401    -0.20000
C385        C  0.40765891  0.93778786  0.43587119    -0.21400
C386        C  0.37806497  0.92227622  0.43546791    -0.09500
C387        C  0.36686680  0.90027048  0.47490405     0.29400
C388        C  0.38494171  0.89275953  0.51280446    -0.21400
C389        C  0.41450258  0.90753181  0.51321817    -0.09500
C390        C  0.42579064  0.93063273  0.47455098     0.29400
F391        F  0.45437239  0.94521154  0.47366215    -0.20000
H392        H  0.41686261  0.95489730  0.40610211     0.17800
H393        H  0.37540671  0.87594821  0.54251534     0.17800
F394        F  0.33814794  0.88655735  0.47759374    -0.20000
C395        C  0.23738644  0.84148031  0.35079038    -0.21400
C396        C  0.25099181  0.83688917  0.30708167    -0.09500
C397        C  0.25543111  0.79267916  0.28852853     0.29400
C398        C  0.24907667  0.75417697  0.31534424    -0.21400
C399        C  0.23878704  0.75955420  0.36090941    -0.09500
C400        C  0.23178158  0.80328539  0.37774957     0.29400
F401        F  0.22026747  0.80911545  0.42079296    -0.20000
H402        H  0.23298360  0.87499400  0.36571015     0.17800
H403        H  0.25383237  0.72031064  0.30158472     0.17800
F404        F  0.26772695  0.78664672  0.24609289    -0.20000
C405        C  0.52147063  0.15977691  0.44890853    -0.21400
C406        C  0.52916738  0.19416137  0.41733596    -0.09500
C407        C  0.55320564  0.22318224  0.42792635     0.29400
C408        C  0.56880627  0.21803443  0.46898247    -0.21400
C409        C  0.56114089  0.18389690  0.50076995    -0.09500
C410        C  0.53721540  0.15460094  0.49022354     0.29400
F411        F  0.52919927  0.12060555  0.51929878    -0.20000
H412        H  0.50318750  0.13676016  0.44169843     0.17800
H413        H  0.58712113  0.24113827  0.47570391     0.17800
F414        F  0.56221508  0.25625378  0.39844159    -0.20000
C415        C  0.44373223  0.10840375  0.33845287    -0.21400
C416        C  0.45760634  0.13411811  0.30398188    -0.09500
C417        C  0.45057349  0.12520930  0.25737682     0.29400
C418        C  0.42987702  0.09119454  0.24586617    -0.21400
C419        C  0.41560992  0.06611838  0.28059193    -0.09500
C420        C  0.42292246  0.07502073  0.32714096     0.29400
F421        F  0.41011923  0.05137898  0.36204902    -0.20000
H422        H  0.44863225  0.11459407  0.37459822     0.17800
H423        H  0.42461361  0.08507148  0.20984840     0.17800
F424        F  0.46391717  0.14878962  0.22296520    -0.20000
C425        C  0.63936637  0.17904065  0.92297414    -0.21400
C426        C  0.66995753  0.17106171  0.92684003    -0.09500
C427        C  0.68642854  0.16089013  0.88659944     0.29400
C428        C  0.67244515  0.15889341  0.84350191    -0.21400
C429        C  0.64171062  0.16571821  0.83980377    -0.09500
C430        C  0.62525096  0.17577312  0.88003513     0.29400
F431        F  0.59555029  0.18301927  0.87779434    -0.20000
H432        H  0.62622627  0.18675536  0.95343754     0.17800
H433        H  0.68556479  0.15093583  0.81307003     0.17800
F434        F  0.71612668  0.15347038  0.88877113    -0.20000
C435        C  0.68229753  0.44412130  0.38671418    -0.21400
C436        C  0.66654491  0.42921312  0.42574746    -0.09500
C437        C  0.63640058  0.41753971  0.42070148     0.29400
C438        C  0.62230028  0.42204964  0.37777241    -0.21400
C439        C  0.63816468  0.43690839  0.33885551    -0.09500
C440        C  0.66843260  0.44743868  0.34366788     0.29400
F441        F  0.68437009  0.46264809  0.30708781    -0.20000
H442        H  0.70551382  0.45327153  0.38950559     0.17800
H443        H  0.59897450  0.41364538  0.37482720     0.17800
F444        F  0.62028760  0.40333350  0.45749589    -0.20000
C445        C  0.51119178  0.43492411  0.95673406    -0.21400
C446        C  0.52502588  0.41783565  0.91657979    -0.09500
C447        C  0.55523950  0.40598492  0.91811066     0.29400
C448        C  0.57099942  0.40991125  0.95916856    -0.21400
C449        C  0.55718119  0.42577560  0.99977631    -0.09500
C450        C  0.52708423  0.43869588  0.99823292     0.29400
F451        F  0.51275707  0.45314472  0.03700360    -0.20000
H452        H  0.48788181  0.44391176  0.95632072     0.17800
H453        H  0.59424861  0.40048659  0.95906384     0.17800
F454        F  0.56977176  0.39098792  0.87969457    -0.20000
C455        C  0.70359240  0.27008946  0.09624630    -0.21400
C456        C  0.68186401  0.23845178  0.08262725    -0.09500
C457        C  0.65332618  0.24118189  0.10189914     0.29400
C458        C  0.64625890  0.27690220  0.13265385    -0.21400
C459        C  0.66738961  0.31071819  0.14332717    -0.09500
C460        C  0.69631676  0.30647011  0.12576493     0.29400
F461        F  0.71686438  0.33940435  0.13450821    -0.20000
H462        H  0.72575600  0.26812832  0.08180668     0.17800
H463        H  0.62362565  0.28038356  0.14486381     0.17800
F464        F  0.63217303  0.21023139  0.08989284    -0.20000
C465        C  0.52906777  0.27503707  0.23995674    -0.21400
C466        C  0.50950370  0.28021491  0.27725346    -0.09500
C467        C  0.50245500  0.32424903  0.29372581     0.29400
C468        C  0.51700047  0.36239992  0.27588116    -0.21400
C469        C  0.53917347  0.35681422  0.24212293    -0.09500
C470        C  0.54392726  0.31310650  0.22242628     0.29400
F471        F  0.56414276  0.30683333  0.18813084    -0.20000
H472        H  0.53471471  0.24116197  0.22705815     0.17800
H473        H  0.51269756  0.39575506  0.29122138     0.17800
F474        F  0.48323892  0.32989740  0.32950151    -0.20000
C475        C  0.38819476  0.64256793  0.94539254    -0.21400
C476        C  0.37815850  0.68305368  0.92487369    -0.09500
C477        C  0.38423103  0.72545691  0.94619378     0.29400
C478        C  0.39848486  0.72706524  0.98872448    -0.21400
C479        C  0.40708178  0.68657852  0.01061720    -0.09500
C480        C  0.40253927  0.64421145  0.98818427     0.29400
F481        F  0.41009244  0.60441766  0.00890773    -0.20000
H482        H  0.38356949  0.60959450  0.92946749     0.17800
H483        H  0.40233043  0.76009304  0.00505544     0.17800
F484        F  0.37599637  0.76535139  0.92620320    -0.20000
C485        C  0.36493060  0.80153176  0.19524787    -0.21400
C486        C  0.37975785  0.84397812  0.19420006    -0.09500
C487        C  0.40921406  0.84512511  0.17747032     0.29400
C488        C  0.42277131  0.80526230  0.16056650    -0.21400
C489        C  0.40732372  0.76375234  0.15956398    -0.09500
C490        C  0.37846658  0.76185205  0.17763478     0.29400
F491        F  0.36287496  0.72209653  0.17605056    -0.20000
H492        H  0.34232760  0.79932522  0.20777293     0.17800
H493        H  0.44471780  0.80741463  0.14541487     0.17800
F494        F  0.42440775  0.88510534  0.17454300    -0.20000
C495        C  0.49624819  0.61753286  0.09592991    -0.21400
C496        C  0.47701195  0.63579740  0.12960395    -0.09500
C497        C  0.48115211  0.62367804  0.17601616     0.29400
C498        C  0.50362780  0.59295971  0.18807401    -0.21400
C499        C  0.52260464  0.57399056  0.15426358    -0.09500
C500        C  0.51886898  0.58726250  0.10791299     0.29400
F501        F  0.53656587  0.57040599  0.07373497    -0.20000
H502        H  0.49374351  0.62661204  0.05997139     0.17800
H503        H  0.50585456  0.58351924  0.22396042     0.17800
F504        F  0.46277727  0.63996590  0.20954738    -0.20000
C505        C  0.22959817  0.55768924  0.90335734    -0.21400
C506        C  0.23351886  0.51283912  0.88652335    -0.09500
C507        C  0.25759418  0.50321621  0.85699551     0.29400
C508        C  0.27699582  0.53795518  0.84413246    -0.21400
C509        C  0.27292341  0.58307989  0.86025738    -0.09500
C510        C  0.24895247  0.59262940  0.89029694     0.29400
F511        F  0.24400054  0.63557904  0.90703010    -0.20000
H512        H  0.21129795  0.56585996  0.92631382     0.17800
H513        H  0.29528268  0.52931414  0.82133487     0.17800
F514        F  0.26299438  0.45997894  0.84144963    -0.20000
C515        C  0.19218625  0.27927584  0.85188142    -0.21400
C516        C  0.17928645  0.28074454  0.80762545    -0.09500
C517        C  0.17358186  0.32375495  0.78791471     0.29400
C518        C  0.17908531  0.36403724  0.81340305    -0.21400
C519        C  0.18958382  0.36173933  0.85897796    -0.09500
C520        C  0.19682831  0.31918181  0.87755782     0.29400
F521        F  0.20791986  0.31615897  0.92098673    -0.20000
H522        H  0.19718449  0.24686472  0.86797668     0.17800
H523        H  0.17371837  0.39687589  0.79849601     0.17800
F524        F  0.16120054  0.32691666  0.74539627    -0.20000
C525        C  0.15430455  0.02418847  0.85061435    -0.21400
C526        C  0.15276685  0.06566517  0.87538022    -0.09500
C527        C  0.16901186  0.07023937  0.91681222     0.29400
C528        C  0.18823423  0.03561897  0.93070019    -0.21400
C529        C  0.19167557  0.99576218  0.90381038    -0.09500
C530        C  0.17352220  0.98947259  0.86459317     0.29400
F531        F  0.17480800  0.95034394  0.83892073    -0.20000
H532        H  0.14159073  0.01929894  0.81924706     0.17800
H533        H  0.20142174  0.04105859  0.96150188     0.17800
F534        F  0.16705075  0.10869025  0.94343887    -0.20000
C535        C  0.01738010  0.02524278  0.82018653    -0.21400
C536        C  0.02103430  0.04027318  0.77457821    -0.09500
C537        C  0.00204002  0.02249392  0.74005902     0.29400
C538        C  0.98026079  0.99009063  0.75125456    -0.21400
C539        C  0.97665767  0.97564877  0.79701004    -0.09500
C540        C  0.99548714  0.99360655  0.83137485     0.29400
F541        F  0.99328863  0.97976860  0.87587146    -0.20000
H542        H  0.03147482  0.03810853  0.84765773     0.17800
H543        H  0.96588326  0.97686334  0.72431867     0.17800
F544        F  0.00448781  0.03611657  0.69555822    -0.20000
C545        C  0.67185971  0.99145485  0.56803353    -0.21400
C546        C  0.69235470  0.99851546  0.53216160    -0.09500
C547        C  0.69385892  0.04189710  0.51161310     0.29400
C548        C  0.67635890  0.07786668  0.52848380    -0.21400
C549        C  0.65668613  0.07127062  0.56558102    -0.09500
C550        C  0.65401474  0.02722049  0.58441167     0.29400
F551        F  0.63497785  0.01888508  0.61971590    -0.20000
H552        H  0.66997224  0.95824915  0.58409481     0.17800
H553        H  0.67848635  0.11117300  0.51270660     0.17800
F554        F  0.71315336  0.05034258  0.47668679    -0.20000
C555        C  0.73380617  0.78826755  0.60859106    -0.21400
C556        C  0.76025449  0.78807187  0.63416822    -0.09500
C557        C  0.77909372  0.82644131  0.63239490     0.29400
C558        C  0.77262405  0.86258951  0.60262021    -0.21400
C559        C  0.74704610  0.86123439  0.57522140    -0.09500
C560        C  0.72704204  0.82482645  0.57974178     0.29400
F561        F  0.70186396  0.82338135  0.55412219    -0.20000
H562        H  0.71919851  0.75881545  0.60898521     0.17800
H563        H  0.78799602  0.89093832  0.59986354     0.17800
F564        F  0.80502695  0.82709789  0.65603765    -0.20000
C565        C  0.91178861  0.75168533  0.76758666    -0.21400
C566        C  0.88897949  0.75553648  0.73489689    -0.09500
C567        C  0.88314971  0.79867010  0.71554320     0.29400
C568        C  0.89802745  0.83773334  0.73190310    -0.21400
C569        C  0.91872667  0.83413964  0.76772897    -0.09500
C570        C  0.92627719  0.79068606  0.78432769     0.29400
F571        F  0.94594501  0.78643693  0.81947587    -0.20000
H572        H  0.91680190  0.71892307  0.78295016     0.17800
H573        H  0.89174508  0.87109257  0.71913980     0.17800
F574        F  0.86220716  0.80333130  0.68236848    -0.20000
C575        C  0.75757674  0.48902429  0.57398968    -0.21400
C576        C  0.73986059  0.49417224  0.53437625    -0.09500
C577        C  0.74184858  0.53510411  0.50937384     0.29400
C578        C  0.76031095  0.57041444  0.52472666    -0.21400
C579        C  0.77733252  0.56579119  0.56504529    -0.09500
C580        C  0.77614065  0.52433632  0.58924443     0.29400
F581        F  0.79190660  0.51845799  0.62864238    -0.20000
H582        H  0.75663322  0.45789927  0.59394662     0.17800
H583        H  0.76098517  0.60179938  0.50515235     0.17800
F584        F  0.72515612  0.54202899  0.47112355    -0.20000
C585        C  0.05517413  0.34579573  0.68142551    -0.21400
C586        C  0.02568531  0.34359497  0.66661524    -0.09500
C587        C  0.00981613  0.30259742  0.67136213     0.29400
C588        C  0.02412909  0.26334898  0.68767396    -0.21400
C589        C  0.05444261  0.26457955  0.69946927    -0.09500
C590        C  0.06941778  0.30699951  0.69821281     0.29400
F591        F  0.09839672  0.31069862  0.71031135    -0.20000
H592        H  0.06773912  0.37715312  0.67751377     0.17800
H593        H  0.01189377  0.23146276  0.68857953     0.17800
F594        F  0.98138762  0.29944251  0.65630317    -0.20000
C595        C  0.91460025  0.51809256  0.61023629    -0.21400
C596        C  0.90991440  0.53123060  0.65656172    -0.09500
C597        C  0.92766635  0.51125951  0.69100321     0.29400
C598        C  0.95010751  0.48017857  0.67886685    -0.21400
C599        C  0.95550685  0.46879906  0.63234334    -0.09500
C600        C  0.93715816  0.48748442  0.59816546     0.29400
F601        F  0.94091658  0.47613759  0.55294421    -0.20000
H602        H  0.90122196  0.53236510  0.58289352     0.17800
H603        H  0.96389021  0.46609881  0.70583118     0.17800
F604        F  0.92369176  0.52201773  0.73631900    -0.20000
C605        C  0.28245193  0.08555173  0.34911249    -0.21400
C606        C  0.28535843  0.04672369  0.37682077    -0.09500
C607        C  0.27077986  0.04585702  0.41986902     0.29400
C608        C  0.25192001  0.08157206  0.43307601    -0.21400
C609        C  0.24709643  0.11879536  0.40371478    -0.09500
C610        C  0.26351274  0.12128182  0.36223136     0.29400
F611        F  0.26066374  0.15736870  0.33341246    -0.20000
H612        H  0.29373518  0.08733366  0.31611599     0.17800
H613        H  0.24013411  0.07897856  0.46556511     0.17800
F614        F  0.27410862  0.00994873  0.44880781    -0.20000
C615        C  0.18776209  0.16271209  0.54992704    -0.21400
C616        C  0.17164243  0.17888125  0.51177760    -0.09500
C617        C  0.14187656  0.19202742  0.51857570     0.29400
C618        C  0.12855757  0.18785035  0.56218676    -0.21400
C619        C  0.14470483  0.17144321  0.60015151    -0.09500
C620        C  0.17461828  0.15937050  0.59362924     0.29400
F621        F  0.19087789  0.14256743  0.62903544    -0.20000
H622        H  0.21071933  0.15242225  0.54595832     0.17800
H623        H  0.10548695  0.19748110  0.56629882     0.17800
F624        F  0.12529078  0.20742716  0.48289248    -0.20000
C625        C  0.14695592  0.48820114  0.06795223    -0.21400
C626        C  0.14292540  0.44781514  0.09314331    -0.09500
C627        C  0.15180062  0.40583057  0.07338287     0.29400
C628        C  0.16420546  0.40441583  0.02899345    -0.21400
C629        C  0.16857274  0.44489150  0.00397087    -0.09500
C630        C  0.15989756  0.48695591  0.02403073     0.29400
F631        F  0.16308413  0.52676716  0.00073668    -0.20000
H632        H  0.14003044  0.52089526  0.08238734     0.17800
H633        H  0.17067638  0.37160825  0.01433875     0.17800
F634        F  0.14744011  0.36605046  0.09622399    -0.20000
C635        C  0.04226095  0.46116556  0.44700842    -0.21400
C636        C  0.06482119  0.42955344  0.43583414    -0.09500
C637        C  0.07169565  0.39516631  0.46794986     0.29400
C638        C  0.05677503  0.39295454  0.50985145    -0.21400
C639        C  0.03432842  0.42441339  0.52141653    -0.09500
C640        C  0.02711283  0.45874985  0.48938885     0.29400
F641        F  0.00568199  0.49013254  0.49888328    -0.20000
H642        H  0.03648577  0.48802614  0.42313837     0.17800
H643        H  0.06289580  0.36583684  0.53320549     0.17800
F644        F  0.09271158  0.36288942  0.45908883    -0.20000
C645        C  0.19755754  0.30264257  0.30034313    -0.21400
C646        C  0.16781542  0.31067797  0.28912644    -0.09500
C647        C  0.14561451  0.28336211  0.30906350     0.29400
C648        C  0.15306629  0.25047833  0.34200854    -0.21400
C649        C  0.18278316  0.24372949  0.35449436    -0.09500
C650        C  0.20509251  0.26895521  0.33212469     0.29400
F651        F  0.23406046  0.26343898  0.34356594    -0.20000
H652        H  0.21482563  0.32442012  0.28656951     0.17800
H653        H  0.13563752  0.23095039  0.35842132     0.17800
F654        F  0.11657005  0.29150210  0.29993465    -0.20000
C655        C  0.17376464  0.53451884  0.40451010    -0.21400
C656        C  0.16093515  0.53528361  0.36046887    -0.09500
C657        C  0.16531083  0.57335703  0.33218243     0.29400
C658        C  0.18276556  0.60977639  0.34755193    -0.21400
C659        C  0.19584311  0.60924141  0.39165245    -0.09500
C660        C  0.19081413  0.57129344  0.42033923     0.29400
F661        F  0.20212233  0.56950216  0.46369013    -0.20000
H662        H  0.17016609  0.50564018  0.42702733     0.17800
H663        H  0.18610864  0.63833567  0.32458221     0.17800
F664        F  0.15341317  0.57480157  0.28918097    -0.20000
C665        C  0.90619303  0.64370243  0.43668901    -0.21400
C666        C  0.90722812  0.68657292  0.41497302    -0.09500
C667        C  0.89367976  0.72451184  0.43654065     0.29400
C668        C  0.87840901  0.71926092  0.47783351    -0.21400
C669        C  0.87626473  0.67626668  0.49874044    -0.09500
C670        C  0.89075308  0.63845471  0.47837892     0.29400
F671        F  0.88872498  0.59625825  0.49735093    -0.20000
H672        H  0.91647367  0.61399902  0.42062836     0.17800
H673        H  0.86788552  0.74906082  0.49335322     0.17800
F674        F  0.89522336  0.76691299  0.41789772    -0.20000
C675        C  0.00097375  0.62239388  0.33547539    -0.21400
C676        C  0.98187122  0.63875815  0.30121531    -0.09500
C677        C  0.98519723  0.62293196  0.25554017     0.29400
C678        C  0.00678776  0.59014354  0.24482762    -0.21400
C679        C  0.02558042  0.57295652  0.27932144    -0.09500
C680        C  0.02277236  0.59012540  0.32478260     0.29400
F681        F  0.04050571  0.57510248  0.35930844    -0.20000
H682        H  0.99885743  0.63439096  0.37087089     0.17800
H683        H  0.00855076  0.57784258  0.20950824     0.17800
F684        F  0.96671938  0.63739661  0.22172962    -0.20000
C685        C  0.69436529  0.55828697  0.01252366    -0.21400
C686        C  0.69316943  0.60183854  0.03343483    -0.09500
C687        C  0.67231890  0.60976704  0.06901448     0.29400
C688        C  0.65401094  0.57443773  0.08434625    -0.21400
C689        C  0.65604566  0.53032484  0.06486607    -0.09500
C690        C  0.67614691  0.52279904  0.02803588     0.29400
F691        F  0.67843360  0.48115611  0.00699731    -0.20000
H692        H  0.71008976  0.55120722  0.98502752     0.17800
H693        H  0.63856965  0.58153962  0.11222212     0.17800
F694        F  0.66956384  0.65169952  0.08926388    -0.20000
C695        C  0.74981399  0.65086820  0.88350512    -0.21400
C696        C  0.76449842  0.66913451  0.92236192    -0.09500
C697        C  0.79296151  0.68828811  0.91637210     0.29400
C698        C  0.80653801  0.68791171  0.87282706    -0.21400
C699        C  0.79179142  0.66972224  0.83414782    -0.09500
C700        C  0.76313433  0.65160195  0.83974003     0.29400
F701        F  0.74852288  0.63282446  0.80322749    -0.20000
H702        H  0.72786706  0.63620763  0.88692382     0.17800
H703        H  0.82868014  0.70187053  0.86928481     0.17800
F704        F  0.80811496  0.70626523  0.95274308    -0.20000
C705        C  0.80780523  0.93050433  0.37504005    -0.21400
C706        C  0.79081350  0.93427097  0.33446219    -0.09500
C707        C  0.75961589  0.93409684  0.33834486     0.29400
C708        C  0.74603970  0.93219124  0.38185530    -0.21400
C709        C  0.76312027  0.92895947  0.42216496    -0.09500
C710        C  0.79414941  0.92735518  0.41838350     0.29400
F711        F  0.81130214  0.92474926  0.45673939    -0.20000
H712        H  0.83180434  0.93023682  0.37331340     0.17800
H713        H  0.72205532  0.93316502  0.38411101     0.17800
F714        F  0.74214713  0.93705151  0.30036898    -0.20000
C715        C  0.89186667  0.96147442  0.98132659    -0.21400
C716        C  0.87656670  0.92326062  0.99819145    -0.09500
C717        C  0.87722082  0.88200611  0.97270689     0.29400
C718        C  0.89193535  0.87957216  0.93046993    -0.21400
C719        C  0.90636560  0.91809472  0.91246391    -0.09500
C720        C  0.90657382  0.95911816  0.93868672     0.29400
F721        F  0.91993044  0.99741135  0.92255009    -0.20000
H722        H  0.89146547  0.99366012  0.00029178     0.17800
H723        H  0.89178153  0.84729486  0.91168037     0.17800
F724        F  0.86355666  0.84382965  0.98859491    -0.20000
C725        C  0.73348053  0.80467483  0.12166703    -0.21400
C726        C  0.76296827  0.81439686  0.13340595    -0.09500
C727        C  0.78569499  0.78501982  0.11780537     0.29400
C728        C  0.77905161  0.74786044  0.08877736    -0.21400
C729        C  0.74963682  0.73890144  0.07601563    -0.09500
C730        C  0.72673476  0.76659529  0.09389555     0.29400
F731        F  0.69811239  0.75884249  0.08162624    -0.20000
H732        H  0.71586389  0.82775608  0.13228566     0.17800
H733        H  0.79691418  0.72673180  0.07531699     0.17800
F734        F  0.81452449  0.79458886  0.12737272    -0.20000
C735        C  0.86902069  0.80269956  0.23881933    -0.21400
C736        C  0.88420718  0.84468096  0.23566000    -0.09500
C737        C  0.91492460  0.84558660  0.24492632     0.29400
C738        C  0.92919358  0.80630430  0.26135064    -0.21400
C739        C  0.91304346  0.76597308  0.26854512    -0.09500
C740        C  0.88319157  0.76390980  0.25550043     0.29400
F741        F  0.86721345  0.72506990  0.26189357    -0.20000
H742        H  0.84556189  0.80033904  0.23115090     0.17800
H743        H  0.95225795  0.80834082  0.27159140     0.17800
F744        F  0.93080924  0.88478462  0.24062156    -0.20000
C745        C  0.76442578  0.03288976  0.02363907    -0.21400
C746        C  0.78095550  0.03762008  0.06446377    -0.09500
C747        C  0.77983291  0.07931554  0.08916705     0.29400
C748        C  0.76100294  0.11432281  0.07459620    -0.21400
C749        C  0.74330061  0.10863530  0.03494220    -0.09500
C750        C  0.74592215  0.06793523  0.00877724     0.29400
F751        F  0.72960375  0.06074846  0.97003326    -0.20000
H752        H  0.76533220  0.00143443  0.00349412     0.17800
H753        H  0.75973340  0.14549100  0.09513388     0.17800
F754        F  0.79570200  0.08551598  0.12854137    -0.20000
C755        C  0.05071980  0.22699843  0.95052615    -0.21400
C756        C  0.05610797  0.18306597  0.93243106    -0.09500
C757        C  0.04342517  0.14485546  0.95390564     0.29400
C758        C  0.02638506  0.15074459  0.99395058    -0.21400
C759        C  0.02179163  0.19473869  0.01294973    -0.09500
C760        C  0.03358127  0.23298215  0.99012580     0.29400
F761        F  0.02871441  0.27626548  0.00601474    -0.20000
H762        H  0.06000354  0.25689479  0.93401827     0.17800
H763        H  0.01769917  0.12073795  0.01097699     0.17800
F764        F  0.04885279  0.10183142  0.93775856    -0.20000
C765        C  0.04483012  0.31648179  0.20430122    -0.21400
C766        C  0.04209041  0.35912302  0.18244118    -0.09500
C767        C  0.02021170  0.36438462  0.14823193     0.29400
C768        C  0.00341000  0.32672571  0.13370446    -0.21400
C769        C  0.00768848  0.28350604  0.15335109    -0.09500
C770        C  0.02770587  0.27897311  0.19000186     0.29400
F771        F  0.03295046  0.23729046  0.20859672    -0.20000
H772        H  0.06124712  0.31155810  0.23106262     0.17800
H773        H  0.98858977  0.33048690  0.10456520     0.17800
F774        F  0.01673856  0.40472011  0.12597129    -0.20000
C775        C  0.94309809  0.13420058  0.17676863    -0.21400
C776        C  0.95434706  0.13505039  0.13136562    -0.09500
C777        C  0.94490796  0.10078870  0.09981631     0.29400
C778        C  0.92440040  0.06782106  0.11302466    -0.21400
C779        C  0.91285136  0.06727776  0.15795120    -0.09500
C780        C  0.92270258  0.10039856  0.19014629     0.29400
F781        F  0.91187867  0.10113755  0.23391171    -0.20000
H782        H  0.94993169  0.15981810  0.20188298     0.17800
H783        H  0.91746155  0.04244035  0.08768209     0.17800
F784        F  0.95485851  0.09919974  0.05554909    -0.20000
loop_ 
_geom_bond_atom_site_label_1 
_geom_bond_atom_site_label_2 
_geom_bond_distance 
_geom_bond_site_symmetry_2 
_ccdc_geom_bond_type 
C1            N2   1.352   1_655  A
C1            N6   1.365       .  A
C1          C769   1.468   1_655  S
N2            C3   1.349       .  A
C3            N4   1.352   1_455  A
C3          C759   1.476       .  S
N4            C5   1.360       .  A
C5            N6   1.368       .  A
C5          C776   1.491       .  S
O7          Ni13   1.896       .  S
O7           C28   1.260       .  A
O8          Ni31   1.889   1_545  S
O8           C17   1.267       .  A
O9          Ni13   1.903       .  S
O9          Ni31   1.883       .  S
O9          Ni25   1.915       .  S
O9           H32   0.966       .  S
C10         C706   1.490       .  S
C10          O27   1.271       .  A
C10          O19   1.278       .  A
O11         Ni30   1.944   1_545  S
O11          C17   1.275       .  A
O12         Ni30   1.915       .  S
O12          C14   1.272       .  A
Ni13         O16   1.906       .  S
Ni13         O18   1.896       .  S
C14         C736   1.485       .  S
C14          O24   1.274       .  A
O15         Ni31   1.934       .  S
O15          C21   1.282       .  A
O16          C21   1.276       .  A
C17         C779   1.481       .  S
O18          C20   1.266       .  A
O19         Ni30   1.947       .  S
C20         C746   1.476   1_565  S
C20          O26   1.269   1_565  A
C21         C716   1.475   1_554  S
H22          O23   0.966   1_545  S
O23         Ni31   1.934       .  S
O23         Ni25   1.920       .  S
O23         Ni30   1.920       .  S
O24         Ni25   1.927       .  S
Ni25         O29   1.926       .  S
Ni25         O27   1.907       .  S
O26         Ni31   1.921   1_545  S
C28         C726   1.467       .  S
C28          O29   1.266       .  A
C33          N34   1.360   1_556  A
C33          N38   1.364       .  A
C33         C696   1.488       .  S
N34          C35   1.357       .  A
C35          N36   1.353       .  A
C35         C729   1.470       .  S
N36          C37   1.357       .  A
C37          N38   1.364   1_554  A
C37         C686   1.484       .  S
C39          N40   1.358       .  A
C39          N44   1.354       .  A
C39         C739   1.465       .  S
N40          C41   1.363       .  A
C41          N42   1.359       .  A
C41         C676   1.471       .  S
N42          C43   1.353       .  A
C43          N44   1.353       .  A
C43         C666   1.474       .  S
O45         Ni51   1.895       .  S
O45          C66   1.260       .  A
O46         Ni69   1.893       .  S
O46          C55   1.265       .  A
O47         Ni51   1.896       .  S
O47         Ni69   1.879       .  S
O47         Ni63   1.918       .  S
O47          H70   0.966       .  S
C48         C626   1.478       .  S
C48          O65   1.276       .  A
C48          O57   1.274       .  A
O49         Ni68   1.931       .  S
O49          C55   1.272       .  A
O50         Ni68   1.910       .  S
O50          C52   1.271       .  A
Ni51         O54   1.906       .  S
Ni51         O56   1.895       .  S
C52         C766   1.483       .  S
C52          O62   1.273       .  A
O53         Ni69   1.941       .  S
O53          C59   1.286       .  A
O54          C59   1.279       .  A
C55         C679   1.479       .  S
O56          C58   1.263       .  A
O57         Ni68   1.921       .  S
C58         C656   1.466       .  S
C58          O64   1.265       .  A
C59         C636   1.487       .  S
H60          O61   0.966       .  S
O61         Ni69   1.928       .  S
O61         Ni63   1.921       .  S
O61         Ni68   1.911       .  S
O62         Ni63   1.921       .  S
Ni63         O67   1.930       .  S
Ni63         O65   1.923       .  S
O64         Ni69   1.912       .  S
C66         C646   1.467       .  S
C66          O67   1.269       .  A
C71          N72   1.366       .  A
C71          N76   1.360       .  A
C71         C616   1.491       .  S
N72          C73   1.365       .  A
C73          N74   1.353       .  A
C73         C649   1.476       .  S
N74          C75   1.353       .  A
C75          N76   1.358       .  A
C75         C609   1.483       .  S
C77          N78   1.358   1_455  A
C77          N82   1.352       .  A
C77         C586   1.467       .  S
N78          C79   1.364       .  A
C79          N80   1.364       .  A
C79         C599   1.479       .  S
N80          C81   1.357   1_655  A
C81          N82   1.354       .  A
C81         C639   1.487       .  S
O83         Ni89   1.939       .  S
O83         C104   1.275       .  A
O84        Ni107   1.930       .  S
O84          C93   1.269       .  A
O85         Ni89   1.915       .  S
O85        Ni107   1.918       .  S
O85        Ni101   1.930       .  S
O85         H108   0.966       .  S
C86         C669   1.472       .  S
C86         O103   1.283       .  A
C86          O95   1.277       .  A
O87        Ni106   1.897       .  S
O87          C93   1.261       .  A
O88        Ni106   1.898       .  S
O88          C90   1.264       .  A
Ni89         O92   1.944       .  S
Ni89         O94   1.905       .  S
C90         C579   1.479       .  S
C90         O100   1.268       .  A
O91        Ni107   1.908       .  S
O91          C97   1.271       .  A
O92          C97   1.276       .  A
C93         C556   1.473       .  S
O94          C96   1.271       .  A
O95        Ni106   1.901       .  S
C96         C566   1.480       .  S
C96         O102   1.278       .  A
C97         C699   1.479       .  S
H98          O99   0.966       .  S
O99        Ni107   1.909       .  S
O99        Ni101   1.882       .  S
O99        Ni106   1.897       .  S
O100       Ni101   1.922       .  S
Ni101       O105   1.892       .  S
Ni101       O103   1.937       .  S
O102       Ni107   1.944       .  S
C104        C596   1.486       .  S
C104        O105   1.267       .  A
C109        N110   1.359       .  A
C109        N114   1.361       .  A
C109        C709   1.478       .  S
N110        C111   1.360       .  A
C111        N112   1.357       .  A
C111        C546   1.479       .  S
N112        C113   1.353       .  A
C113        N114   1.361       .  A
C113        C559   1.467       .  S
C115        N116   1.354       .  A
C115        N120   1.361       .  A
C115        C569   1.468       .  S
N116        C117   1.354       .  A
C117        N118   1.354       .  A
C117        C719   1.482       .  S
N118        C119   1.360       .  A
C119        N120   1.365       .  A
C119        C539   1.478       .  S
O121       Ni127   1.947       .  S
O121        C142   1.277       .  A
O122       Ni145   1.937       .  S
O122        C131   1.270       .  A
O123       Ni127   1.914       .  S
O123       Ni145   1.918       .  S
O123       Ni139   1.928       .  S
O123        H146   0.966       .  S
C124        C756   1.468       .  S
C124        O141   1.283       .  A
C124        O133   1.278       .  A
O125       Ni144   1.890       .  S
O125        C131   1.260       .  A
O126       Ni144   1.894       .  S
O126        C128   1.263       .  A
Ni127       O130   1.950       .  S
Ni127       O132   1.912       .  S
C128        C526   1.480       .  S
C128        O138   1.272       .  A
O129       Ni145   1.912       .  S
O129        C135   1.274       .  A
O130        C135   1.279       .  A
C131        C516   1.483       .  S
O132        C134   1.272       .  A
O133       Ni144   1.903       .  S
C134        C589   1.487       .  S
C134        O140   1.275       .  A
C135        C619   1.487       .  S
H136        O137   0.966       .  S
O137       Ni145   1.919       .  S
O137       Ni139   1.875       .  S
O137       Ni144   1.888       .  S
O138       Ni139   1.930       .  S
Ni139       O143   1.888       .  S
Ni139       O141   1.936       .  S
O140       Ni145   1.935       .  S
C142        C536   1.487       .  S
C142        O143   1.267       .  A
C147        N148   1.359       .  A
C147        N152   1.359       .  A
C147        C629   1.482   1_556  S
N148        C149   1.360       .  A
C149        N150   1.354       .  A
C149        C519   1.469       .  S
N150        C151   1.358       .  A
C151        N152   1.359       .  A
C151        C506   1.476       .  S
C153        N154   1.360       .  A
C153        N158   1.352       .  A
C153        C489   1.466       .  S
N154        C155   1.364       .  A
C155        N156   1.361       .  A
C155        C496   1.481       .  S
N156        C157   1.355       .  A
C157        N158   1.353       .  A
C157        C479   1.470       .  S
O159       Ni165   1.942       .  S
O159        C180   1.276       .  A
O160       Ni183   1.926       .  S
O160        C169   1.267       .  A
O161       Ni165   1.921       .  S
O161       Ni183   1.919       .  S
O161       Ni177   1.934       .  S
O161        H184   0.966       .  S
C162        C449   1.478   1_554  S
C162        O179   1.283       .  A
C162        O171   1.279       .  A
O163       Ni182   1.898       .  S
O163        C169   1.260       .  A
O164       Ni182   1.897       .  S
O164        C166   1.263       .  A
Ni165       O168   1.950       .  S
Ni165       O170   1.904       .  S
C166        C689   1.486       .  S
C166        O176   1.272       .  A
O167       Ni183   1.907       .  S
O167        C173   1.270       .  A
O168        C173   1.277       .  A
C169        C459   1.464       .  S
O170        C172   1.270       .  A
O171       Ni182   1.908       .  S
C172        C469   1.476       .  S
C172        O178   1.276       .  A
C173        C439   1.484       .  S
H174        O175   0.966       .  S
O175       Ni183   1.910       .  S
O175       Ni177   1.876       .  S
O175       Ni182   1.897       .  S
O176       Ni177   1.930       .  S
Ni177       O181   1.890       .  S
Ni177       O179   1.934       .  S
O178       Ni183   1.935       .  S
C180        C499   1.487       .  S
C180        O181   1.265       .  A
C185        N186   1.362   1_556  A
C185        N190   1.358       .  A
C185        C426   1.481       .  S
N186        C187   1.361       .  A
C187        N188   1.354       .  A
C187        C456   1.466       .  S
N188        C189   1.355       .  A
C189        N190   1.358   1_554  A
C189        C749   1.479       .  S
C191        N192   1.357       .  A
C191        N196   1.354       .  A
C191        C466   1.463       .  S
N192        C193   1.361       .  A
C193        N194   1.361       .  A
C193        C416   1.477       .  S
N194        C195   1.356       .  A
C195        N196   1.354       .  A
C195        C406   1.485       .  S
O197       Ni203   1.949   1_545  S
O197        C218   1.277       .  A
O198       Ni221   1.937       .  S
O198        C207   1.272       .  A
O199       Ni203   1.907       .  S
O199       Ni221   1.916       .  S
O199       Ni215   1.928       .  S
O199        H222   0.965   1_565  S
C200        C386   1.484       .  S
C200        O217   1.285       .  A
C200        O209   1.278       .  A
O201       Ni220   1.891       .  S
O201        C207   1.260       .  A
O202       Ni220   1.896       .  S
O202        C204   1.262   1_565  A
Ni203       O206   1.943       .  S
Ni203       O208   1.907       .  S
C204        C606   1.477       .  S
C204        O214   1.268       .  A
O205       Ni221   1.914       .  S
O205        C211   1.274       .  A
O206        C211   1.277       .  A
C207        C396   1.480       .  S
O208        C210   1.272       .  A
O209       Ni220   1.902       .  S
C210        C486   1.488       .  S
C210        O216   1.279       .  A
C211        C376   1.482       .  S
H212        O213   0.966       .  S
O213       Ni221   1.918       .  S
O213       Ni215   1.870       .  S
O213       Ni220   1.888       .  S
O214       Ni215   1.924   1_545  S
Ni215       O219   1.874   1_565  S
Ni215       O217   1.944       .  S
O216       Ni221   1.946       .  S
C218        C419   1.479       .  S
C218        O219   1.262       .  A
C223        N224   1.357       .  A
C223        N228   1.359       .  A
C223        C366   1.474       .  S
N224        C225   1.358       .  A
C225        N226   1.357       .  A
C225        C659   1.480       .  S
N226        C227   1.352       .  A
C227        N228   1.361       .  A
C227        C399   1.466       .  S
C229        N230   1.350       .  A
C229        N234   1.362       .  A
C229        C346   1.468       .  S
N230        C231   1.351       .  A
C231        N232   1.358       .  A
C231        C446   1.476       .  S
N232        C233   1.365       .  A
C233        N234   1.368       .  A
C233        C356   1.491       .  S
O235       Ni241   1.892       .  S
O235        C256   1.258       .  A
O236       Ni259   1.890       .  S
O236        C245   1.266       .  A
O237       Ni241   1.900       .  S
O237       Ni259   1.879       .  S
O237       Ni253   1.909       .  S
O237        H260   0.966       .  S
C238        C369   1.482       .  S
C238        O255   1.269       .  A
C238        O247   1.280       .  A
O239       Ni258   1.952       .  S
O239        C245   1.278       .  A
O240       Ni258   1.907       .  S
O240        C242   1.271       .  A
Ni241       O244   1.905       .  S
Ni241       O246   1.899       .  S
C242        C336   1.478       .  S
C242        O252   1.274       .  A
O243       Ni259   1.927       .  S
O243        C249   1.280       .  A
O244        C249   1.277       .  A
C245        C359   1.490       .  S
O246        C248   1.264       .  A
O247       Ni258   1.953       .  S
C248        C509   1.481       .  S
C248        O254   1.268       .  A
C249        C476   1.468       .  S
H250        O251   0.966       .  S
O251       Ni259   1.928       .  S
O251       Ni253   1.920       .  S
O251       Ni258   1.916       .  S
O252       Ni253   1.931       .  S
Ni253       O257   1.931       .  S
Ni253       O255   1.899       .  S
O254       Ni259   1.916       .  S
C256        C326   1.463       .  S
C256        O257   1.266       .  A
C261        N262   1.367       .  A
C261        N266   1.361       .  A
C261        C379   1.492   1_556  S
N262        C263   1.364       .  A
C263        N264   1.352       .  A
C263        C329   1.475       .  S
N264        C265   1.351       .  A
C265        N266   1.358       .  A
C265        C529   1.479       .  S
C267        N268   1.352       .  A
C267        N272   1.356       .  A
C267        C339   1.461       .  S
N268        C269   1.354       .  A
C269        N270   1.355       .  A
C269        C389   1.477       .  S
N270        C271   1.362       .  A
C271        N272   1.362       .  A
C271        C319   1.469       .  S
O273       Ni279   1.894       .  S
O273        C294   1.259       .  A
O274       Ni297   1.882       .  S
O274        C283   1.263       .  A
O275       Ni279   1.903       .  S
O275       Ni297   1.876       .  S
O275       Ni291   1.913       .  S
O275        H298   0.966       .  S
C276        C429   1.481       .  S
C276        O293   1.269       .  A
C276        O285   1.275       .  A
O277       Ni296   1.938       .  S
O277        C283   1.275       .  A
O278       Ni296   1.909       .  S
O278        C280   1.272       .  A
Ni279       O282   1.909       .  S
Ni279       O284   1.898       .  S
C280        C349   1.485       .  S
C280        O290   1.278       .  A
O281       Ni297   1.937       .  S
O281        C287   1.284       .  A
O282        C287   1.279       .  A
C283        C316   1.482       .  S
O284        C286   1.264       .  A
O285       Ni296   1.939       .  S
C286        C549   1.481       .  S
C286        O292   1.267       .  A
C287        C409   1.486       .  S
H288        O289   0.966       .  S
O289       Ni297   1.937       .  S
O289       Ni291   1.918       .  S
O289       Ni296   1.921       .  S
O290       Ni291   1.939       .  S
Ni291       O295   1.926       .  S
Ni291       O293   1.907       .  S
O292       Ni297   1.919       .  S
C294        C306   1.464       .  S
C294        O295   1.266       .  A
C299        N300   1.364       .  A
C299        N304   1.361       .  A
C299        C436   1.488       .  S
N300        C301   1.363       .  A
C301        N302   1.352       .  A
C301        C309   1.470       .  S
N302        C303   1.353       .  A
C303        N304   1.359       .  A
C303        C576   1.481       .  S
C305        C306   1.400       .  A
C305        C310   1.395       .  A
C305        H312   1.084       .  S
C306        C307   1.407       .  A
C307        C308   1.400       .  A
C307        F314   1.358       .  S
C308        C309   1.401       .  A
C308        H313   1.083       .  S
C309        C310   1.406       .  A
C310        F311   1.358       .  S
C315        C316   1.407       .  A
C315        C320   1.399   1_545  A
C315        H322   1.083       .  S
C316        C317   1.412       .  A
C317        C318   1.392   1_545  A
C317        F324   1.358       .  S
C318        C319   1.399       .  A
C318        H323   1.084       .  S
C319        C320   1.405       .  A
C320        F321   1.358       .  S
C325        C326   1.398       .  A
C325        C330   1.395       .  A
C325        H332   1.084       .  S
C326        C327   1.408       .  A
C327        C328   1.401       .  A
C327        F334   1.357       .  S
C328        C329   1.402       .  A
C328        H333   1.083       .  S
C329        C330   1.409       .  A
C330        F331   1.358       .  S
C335        C336   1.406       .  A
C335        C340   1.396       .  A
C335        H342   1.083       .  S
C336        C337   1.410       .  A
C337        C338   1.397       .  A
C337        F344   1.357       .  S
C338        C339   1.399       .  A
C338        H343   1.084       .  S
C339        C340   1.402       .  A
C340        F341   1.357       .  S
C345        C346   1.402       .  A
C345        C350   1.400       .  A
C345        H352   1.084       .  S
C346        C347   1.402       .  A
C347        C348   1.399       .  A
C347        F354   1.357       .  S
C348        C349   1.407       .  A
C348        H353   1.083       .  S
C349        C350   1.410       .  A
C350        F351   1.358       .  S
C355        C356   1.408       .  A
C355        C360   1.405       .  A
C355        H362   1.083       .  S
C356        C357   1.410       .  A
C357        C358   1.397       .  A
C357        F364   1.358       .  S
C358        C359   1.407       .  A
C358        H363   1.084       .  S
C359        C360   1.408       .  A
C360        F361   1.357       .  S
C365        C366   1.402       .  A
C365        C370   1.398       .  A
C365        H372   1.084       .  S
C366        C367   1.405       .  A
C367        C368   1.402       .  A
C367        F374   1.357       .  S
C368        C369   1.406       .  A
C368        H373   1.083       .  S
C369        C370   1.409       .  A
C370        F371   1.358       .  S
C375        C376   1.406       .  A
C375        C380   1.402       .  A
C375        H382   1.083       .  S
C376        C377   1.404       .  A
C377        C378   1.400       .  A
C377        F384   1.358       .  S
C378        C379   1.411       .  A
C378        H383   1.083       .  S
C379        C380   1.409       .  A
C380        F381   1.357   1_554  S
C385        C386   1.409       .  A
C385        C390   1.405       .  A
C385        H392   1.083       .  S
C386        C387   1.409       .  A
C387        C388   1.387       .  A
C387        F394   1.358       .  S
C388        C389   1.401       .  A
C388        H393   1.083       .  S
C389        C390   1.408       .  A
C390        F391   1.358       .  S
C395        C396   1.410       .  A
C395        C400   1.391       .  A
C395        H402   1.083       .  S
C396        C397   1.407       .  A
C397        C398   1.403       .  A
C397        F404   1.357       .  S
C398        C399   1.405       .  A
C398        H403   1.083       .  S
C399        C400   1.398       .  A
C400        F401   1.358       .  S
C405        C406   1.408       .  A
C405        C410   1.402       .  A
C405        H412   1.083       .  S
C406        C407   1.408       .  A
C407        C408   1.392       .  A
C407        F414   1.358       .  S
C408        C409   1.407       .  A
C408        H413   1.083       .  S
C409        C410   1.409       .  A
C410        F411   1.357       .  S
C415        C416   1.402       .  A
C415        C420   1.390       .  A
C415        H422   1.083       .  S
C416        C417   1.408       .  A
C417        C418   1.401       .  A
C417        F424   1.357       .  S
C418        C419   1.405       .  A
C418        H423   1.083       .  S
C419        C420   1.410       .  A
C420        F421   1.358       .  S
C425        C426   1.403       .  A
C425        C430   1.400       .  A
C425        H432   1.083       .  S
C426        C427   1.409       .  A
C427        C428   1.400       .  A
C427        F434   1.358       .  S
C428        C429   1.404       .  A
C428        H433   1.083       .  S
C429        C430   1.408       .  A
C430        F431   1.357       .  S
C435        C436   1.407       .  A
C435        C440   1.400       .  A
C435        H442   1.083       .  S
C436        C437   1.409       .  A
C437        C438   1.405       .  A
C437        F444   1.357       .  S
C438        C439   1.406       .  A
C438        H443   1.083       .  S
C439        C440   1.406       .  A
C440        F441   1.358       .  S
C445        C446   1.405       .  A
C445        C450   1.404       .  A
C445        H452   1.083       .  S
C446        C447   1.406       .  A
C447        C448   1.390       .  A
C447        F454   1.358       .  S
C448        C449   1.404       .  A
C448        H453   1.084       .  S
C449        C450   1.409       .  A
C450        F451   1.357   1_556  S
C455        C456   1.401       .  A
C455        C460   1.395       .  A
C455        H462   1.084       .  S
C456        C457   1.403       .  A
C457        C458   1.400       .  A
C457        F464   1.357       .  S
C458        C459   1.405       .  A
C458        H463   1.084       .  S
C459        C460   1.404       .  A
C460        F461   1.358       .  S
C465        C466   1.400       .  A
C465        C470   1.398       .  A
C465        H472   1.083       .  S
C466        C467   1.403       .  A
C467        C468   1.396       .  A
C467        F474   1.358       .  S
C468        C469   1.405       .  A
C468        H473   1.083       .  S
C469        C470   1.408       .  A
C470        F471   1.357       .  S
C475        C476   1.404       .  A
C475        C480   1.399       .  A
C475        H482   1.083       .  S
C476        C477   1.405       .  A
C477        C478   1.391       .  A
C477        F484   1.358       .  S
C478        C479   1.402   1_556  A
C478        H483   1.084   1_556  S
C479        C480   1.406   1_554  A
C480        F481   1.357   1_556  S
C485        C486   1.409       .  A
C485        C490   1.400       .  A
C485        H492   1.083       .  S
C486        C487   1.413       .  A
C487        C488   1.398       .  A
C487        F494   1.357       .  S
C488        C489   1.398       .  A
C488        H493   1.084       .  S
C489        C490   1.403       .  A
C490        F491   1.358       .  S
C495        C496   1.404       .  A
C495        C500   1.396       .  A
C495        H502   1.083       .  S
C496        C497   1.406       .  A
C497        C498   1.400       .  A
C497        F504   1.357       .  S
C498        C499   1.408       .  A
C498        H503   1.083       .  S
C499        C500   1.411       .  A
C500        F501   1.358       .  S
C505        C506   1.403       .  A
C505        C510   1.398       .  A
C505        H512   1.083       .  S
C506        C507   1.407       .  A
C507        C508   1.393       .  A
C507        F514   1.357       .  S
C508        C509   1.405       .  A
C508        H513   1.083       .  S
C509        C510   1.412       .  A
C510        F511   1.358       .  S
C515        C516   1.409       .  A
C515        C520   1.391       .  A
C515        H522   1.083       .  S
C516        C517   1.409       .  A
C517        C518   1.404       .  A
C517        F524   1.357       .  S
C518        C519   1.405       .  A
C518        H523   1.083       .  S
C519        C520   1.398       .  A
C520        F521   1.358       .  S
C525        C526   1.402       .  A
C525        C530   1.397   1_545  A
C525        H532   1.083       .  S
C526        C527   1.412       .  A
C527        C528   1.394       .  A
C527        F534   1.358       .  S
C528        C529   1.402   1_545  A
C528        H533   1.083       .  S
C529        C530   1.412       .  A
C530        F531   1.357       .  S
C535        C536   1.406       .  A
C535        C540   1.392   1_445  A
C535        H542   1.083       .  S
C536        C537   1.412       .  A
C537        C538   1.404   1_445  A
C537        F544   1.357       .  S
C538        C539   1.404       .  A
C538        H543   1.083       .  S
C539        C540   1.406       .  A
C540        F541   1.358       .  S
C545        C546   1.406       .  A
C545        C550   1.396   1_565  A
C545        H552   1.083       .  S
C546        C547   1.407   1_565  A
C547        C548   1.397       .  A
C547        F554   1.357       .  S
C548        C549   1.407       .  A
C548        H553   1.083       .  S
C549        C550   1.408       .  A
C550        F551   1.358       .  S
C555        C556   1.405       .  A
C555        C560   1.397       .  A
C555        H562   1.084       .  S
C556        C557   1.408       .  A
C557        C558   1.401       .  A
C557        F564   1.356       .  S
C558        C559   1.401       .  A
C558        H563   1.083       .  S
C559        C560   1.401       .  A
C560        F561   1.358       .  S
C565        C566   1.404       .  A
C565        C570   1.396       .  A
C565        H572   1.083       .  S
C566        C567   1.409       .  A
C567        C568   1.402       .  A
C567        F574   1.356       .  S
C568        C569   1.401       .  A
C568        H573   1.083       .  S
C569        C570   1.404       .  A
C570        F571   1.358       .  S
C575        C576   1.408       .  A
C575        C580   1.397       .  A
C575        H582   1.083       .  S
C576        C577   1.407       .  A
C577        C578   1.395       .  A
C577        F584   1.357       .  S
C578        C579   1.406       .  A
C578        H583   1.083       .  S
C579        C580   1.406       .  A
C580        F581   1.358       .  S
C585        C586   1.399       .  A
C585        C590   1.394       .  A
C585        H592   1.084       .  S
C586        C587   1.403       .  A
C587        C588   1.402       .  A
C587        F594   1.357   1_455  S
C588        C589   1.410       .  A
C588        H593   1.083       .  S
C589        C590   1.412       .  A
C590        F591   1.357       .  S
C595        C596   1.407       .  A
C595        C600   1.395       .  A
C595        H602   1.083       .  S
C596        C597   1.411       .  A
C597        C598   1.400       .  A
C597        F604   1.357       .  S
C598        C599   1.405       .  A
C598        H603   1.083       .  S
C599        C600   1.406       .  A
C600        F601   1.358       .  S
C605        C606   1.402       .  A
C605        C610   1.397       .  A
C605        H612   1.083       .  S
C606        C607   1.409       .  A
C607        C608   1.395       .  A
C607        F614   1.358       .  S
C608        C609   1.404       .  A
C608        H613   1.083       .  S
C609        C610   1.412       .  A
C610        F611   1.357       .  S
C615        C616   1.409       .  A
C615        C620   1.401       .  A
C615        H622   1.083       .  S
C616        C617   1.408       .  A
C617        C618   1.404       .  A
C617        F624   1.357       .  S
C618        C619   1.408       .  A
C618        H623   1.083       .  S
C619        C620   1.406       .  A
C620        F621   1.357       .  S
C625        C626   1.405       .  A
C625        C630   1.398       .  A
C625        H632   1.084       .  S
C626        C627   1.405       .  A
C627        C628   1.401       .  A
C627        F634   1.357       .  S
C628        C629   1.407       .  A
C628        H633   1.083       .  S
C629        C630   1.408       .  A
C630        F631   1.358       .  S
C635        C636   1.408       .  A
C635        C640   1.406       .  A
C635        H642   1.083       .  S
C636        C637   1.411       .  A
C637        C638   1.388       .  A
C637        F644   1.358       .  S
C638        C639   1.404       .  A
C638        H643   1.083       .  S
C639        C640   1.411       .  A
C640        F641   1.357       .  S
C645        C646   1.401       .  A
C645        C650   1.397       .  A
C645        H652   1.084       .  S
C646        C647   1.407       .  A
C647        C648   1.402       .  A
C647        F654   1.358       .  S
C648        C649   1.403       .  A
C648        H653   1.083       .  S
C649        C650   1.408       .  A
C650        F651   1.358       .  S
C655        C656   1.402       .  A
C655        C660   1.395       .  A
C655        H662   1.084       .  S
C656        C657   1.402       .  A
C657        C658   1.393       .  A
C657        F664   1.358       .  S
C658        C659   1.408       .  A
C658        H663   1.083       .  S
C659        C660   1.410       .  A
C660        F661   1.357       .  S
C665        C666   1.408       .  A
C665        C670   1.402       .  A
C665        H672   1.083       .  S
C666        C667   1.405       .  A
C667        C668   1.389       .  A
C667        F674   1.358       .  S
C668        C669   1.403       .  A
C668        H673   1.084       .  S
C669        C670   1.406       .  A
C670        F671   1.358       .  S
C675        C676   1.403   1_455  A
C675        C680   1.393       .  A
C675        H682   1.084   1_455  S
C676        C677   1.404       .  A
C677        C678   1.397   1_655  A
C677        F684   1.357       .  S
C678        C679   1.408       .  A
C678        H683   1.083       .  S
C679        C680   1.409       .  A
C680        F681   1.358       .  S
C685        C686   1.403       .  A
C685        C690   1.400       .  A
C685        H692   1.083   1_554  S
C686        C687   1.410       .  A
C687        C688   1.397       .  A
C687        F694   1.357       .  S
C688        C689   1.403       .  A
C688        H693   1.083       .  S
C689        C690   1.413       .  A
C690        F691   1.358       .  S
C695        C696   1.407       .  A
C695        C700   1.402       .  A
C695        H702   1.083       .  S
C696        C697   1.411       .  A
C697        C698   1.400       .  A
C697        F704   1.357       .  S
C698        C699   1.403       .  A
C698        H703   1.084       .  S
C699        C700   1.406       .  A
C700        F701   1.358       .  S
C705        C706   1.409       .  A
C705        C710   1.401       .  A
C705        H712   1.083       .  S
C706        C707   1.411       .  A
C707        C708   1.401       .  A
C707        F714   1.357       .  S
C708        C709   1.404       .  A
C708        H713   1.083       .  S
C709        C710   1.404       .  A
C710        F711   1.357       .  S
C715        C716   1.404       .  A
C715        C720   1.401       .  A
C715        H722   1.083   1_556  S
C716        C717   1.406       .  A
C717        C718   1.391       .  A
C717        F724   1.358       .  S
C718        C719   1.404       .  A
C718        H723   1.083       .  S
C719        C720   1.411       .  A
C720        F721   1.357       .  S
C725        C726   1.401       .  A
C725        C730   1.399       .  A
C725        H732   1.083       .  S
C726        C727   1.407       .  A
C727        C728   1.398       .  A
C727        F734   1.358       .  S
C728        C729   1.401       .  A
C728        H733   1.084       .  S
C729        C730   1.406       .  A
C730        F731   1.358       .  S
C735        C736   1.408       .  A
C735        C740   1.392       .  A
C735        H742   1.083       .  S
C736        C737   1.411       .  A
C737        C738   1.403       .  A
C737        F744   1.357       .  S
C738        C739   1.402       .  A
C738        H743   1.083       .  S
C739        C740   1.400       .  A
C740        F741   1.358       .  S
C745        C746   1.404       .  A
C745        C750   1.392       .  A
C745        H752   1.083       .  S
C746        C747   1.406       .  A
C747        C748   1.398       .  A
C747        F754   1.358       .  S
C748        C749   1.408       .  A
C748        H753   1.083       .  S
C749        C750   1.407       .  A
C750        F751   1.357   1_554  S
C755        C756   1.401       .  A
C755        C760   1.391       .  A
C755        H762   1.084       .  S
C756        C757   1.405       .  A
C757        C758   1.399       .  A
C757        F764   1.358       .  S
C758        C759   1.407   1_556  A
C758        H763   1.083   1_556  S
C759        C760   1.408   1_554  A
C760        F761   1.358   1_556  S
C765        C766   1.408       .  A
C765        C770   1.400       .  A
C765        H772   1.083       .  S
C766        C767   1.409       .  A
C767        C768   1.397       .  A
C767        F774   1.358       .  S
C768        C769   1.403       .  A
C768        H773   1.084   1_455  S
C769        C770   1.402       .  A
C770        F771   1.357       .  S
C775        C776   1.409       .  A
C775        C780   1.406       .  A
C775        H782   1.083       .  S
C776        C777   1.414       .  A
C777        C778   1.391       .  A
C777        F784   1.358       .  S
C778        C779   1.401       .  A
C778        H783   1.084       .  S
C779        C780   1.409       .  A
C780        F781   1.357       .  S
