geometry optimzed in LAMMPS
_audit_creation_date              2020-11-30 
_audit_creation_method            'lammps2cif' 
_symmetry_space_group_name_H-M    'P1' 
_symmetry_Int_Tables_number       1 
_symmetry_cell_setting            triclinic 
loop_ 
_symmetry_equiv_pos_as_xyz 
  x,y,z 
_cell_length_a                    58.17769454 
_cell_length_b                    58.49398561247788 
_cell_length_c                    48.08176070616102 
_cell_angle_alpha                 89.76259117330311 
_cell_angle_beta                  90.31344204339732 
_cell_angle_gamma                 120.60621571926642 
loop_ 
_atom_site_label 
_atom_site_type_symbol 
_atom_site_fract_x 
_atom_site_fract_y 
_atom_site_fract_z 
_atom_site_charge 
In1        In  0.46451127  0.33343323  0.41035141     1.36900
C2          C  0.51085849  0.37690621  0.42072131     0.78800
O3          O  0.47543379  0.33985055  0.36544105    -0.59700
O4          O  0.43804837  0.33528103  0.37638555    -0.50600
C5          C  0.46262521  0.28771990  0.40878756     0.71400
O6          O  0.48358184  0.30905567  0.41569502    -0.45400
C7          C  0.43939858  0.33021365  0.45823992     0.76100
O8          O  0.50851621  0.35421268  0.41978638    -0.57300
O9          O  0.45024367  0.35084028  0.44341974    -0.47400
O10         O  0.48943109  0.37696448  0.41691507    -0.53700
C11         C  0.45453510  0.33906128  0.35736532     0.86300
O12         O  0.44261722  0.28996272  0.40298906    -0.55600
O13         O  0.43875512  0.31051485  0.44706816    -0.58900
In14       In  0.65495088  0.52146401  0.40762343     1.36900
C15         C  0.61039027  0.47592351  0.41915869     0.78800
O16         O  0.67520288  0.53208068  0.44864727    -0.59700
O17         O  0.64814890  0.54547526  0.44078428    -0.50600
C18         C  0.70124661  0.52425583  0.39881902     0.71400
O19         O  0.67968542  0.50246645  0.40229944    -0.45400
C20         C  0.64747679  0.53543495  0.35713527     0.76100
O21         O  0.63238423  0.47736834  0.41437905    -0.57300
O22         O  0.65583953  0.55177513  0.37706257    -0.47400
O23         O  0.61131623  0.49794848  0.41847569    -0.53700
C24         C  0.66360567  0.54356870  0.45801388     0.86300
O25         O  0.69880903  0.54454529  0.39878102    -0.55600
O26         O  0.64234375  0.51245175  0.36331347    -0.58900
In27       In  0.46129091  0.33236014  0.62420198     1.36900
C28         C  0.50785764  0.37646978  0.61838584     0.78800
O29         O  0.43120579  0.31044560  0.58977690    -0.59700
O30         O  0.45226528  0.35221150  0.58866453    -0.50600
C31         C  0.46202117  0.28765664  0.62066302     0.71400
O32         O  0.48146371  0.30974366  0.61286975    -0.45400
C33         C  0.44983817  0.33508253  0.67729083     0.76100
O34         O  0.50524243  0.35369947  0.61678551    -0.57300
O35         O  0.43507402  0.33493217  0.65779530    -0.47400
O36         O  0.48655095  0.37650302  0.62307513    -0.53700
C37         C  0.43700063  0.33099581  0.57597922     0.86300
O38         O  0.44243483  0.28871803  0.63039830    -0.55600
O39         O  0.46943425  0.33336046  0.66959206    -0.58900
In40       In  0.65687560  0.51641756  0.62481223     1.36900
C41         C  0.60997439  0.47280256  0.61692995     0.78800
O42         O  0.65011125  0.50573736  0.66964288    -0.59700
O43         O  0.65592413  0.54347456  0.65756609    -0.50600
C44         C  0.70437331  0.52186679  0.63081806     0.71400
O45         O  0.68374505  0.49983534  0.62515927    -0.45400
C46         C  0.66367218  0.53890030  0.57490638     0.76100
O47         O  0.63157667  0.47265338  0.61806022    -0.57300
O48         O  0.65343833  0.54487641  0.59469762    -0.47400
O49         O  0.61252149  0.49545063  0.61930663    -0.53700
C50         C  0.65168104  0.52710273  0.67697937     0.86300
O51         O  0.70046955  0.54108407  0.63396342    -0.55600
O52         O  0.67062639  0.52238696  0.58113682    -0.58900
In53       In  0.14588436  0.48552955  0.61613230     1.36900
C54         C  0.14495534  0.52912377  0.60340080     0.78800
O55         O  0.11300137  0.46317761  0.58423198    -0.59700
O56         O  0.14946676  0.46412557  0.57923003    -0.50600
C57         C  0.19266067  0.48998174  0.62478133     0.71400
O58         O  0.19031027  0.50865412  0.61455259    -0.45400
C59         C  0.12769871  0.47376811  0.66798149     0.76100
O60         O  0.16610979  0.52814466  0.60236132    -0.57300
O61         O  0.11894693  0.45637385  0.64906043    -0.47400
O62         O  0.12433164  0.50754082  0.60990421    -0.53700
C63         C  0.12706361  0.45766494  0.56899678     0.86300
O64         O  0.17093347  0.46914259  0.63073173    -0.55600
O65         O  0.14482802  0.49675128  0.66020403    -0.58900
In66       In  0.14430605  0.48260671  0.40445791     1.36900
C67         C  0.14342806  0.52664297  0.41430094     0.78800
O68         O  0.14524056  0.49117659  0.35908845    -0.59700
O69         O  0.11590378  0.45265805  0.37277970    -0.50600
C70         C  0.19192313  0.48803390  0.39994609     0.71400
O71         O  0.18872318  0.50665219  0.40850971    -0.45400
C72         C  0.12549482  0.45602404  0.45239411     0.76100
O73         O  0.16437637  0.52540638  0.41660910    -0.57300
O74         O  0.14622356  0.45927332  0.44079156    -0.47400
O75         O  0.12286513  0.50516712  0.40732848    -0.53700
C76         C  0.12631700  0.46856792  0.35263900     0.86300
O77         O  0.17066543  0.46686010  0.39351997    -0.55600
O78         O  0.11268744  0.46392351  0.43807336    -0.58900
In79       In  0.34356706  0.85133941  0.40416718     1.36900
C80         C  0.38928214  0.85342726  0.41472478     0.78800
O81         O  0.35394568  0.85444794  0.35941982    -0.59700
O82         O  0.34362952  0.88202116  0.37514809    -0.50600
C83         C  0.29717588  0.80801261  0.39476352     0.71400
O84         O  0.31846445  0.80748637  0.39842232    -0.45400
C85         C  0.33456494  0.86219052  0.45536810     0.76100
O86         O  0.36811484  0.83196804  0.40900043    -0.57300
O87         O  0.34915950  0.88064249  0.43862317    -0.47400
O88         O  0.38688906  0.87366316  0.41501184    -0.53700
C89         C  0.35027332  0.87344133  0.35442541     0.86300
O90         O  0.29999570  0.83093974  0.39500412    -0.55600
O91         O  0.32410970  0.83926897  0.44521629    -0.58900
In92       In  0.53887146  0.86764849  0.40966185     1.36900
C93         C  0.54870089  0.88667050  0.35783852     0.78800
O94         O  0.55925828  0.84518918  0.39881239    -0.59700
O95         O  0.52004409  0.82409747  0.41601941    -0.50600
C96         C  0.56369323  0.88877695  0.45805708     0.71400
O97         O  0.55101224  0.89733047  0.44460376    -0.45400
C98         C  0.49165476  0.86198080  0.41972262     0.76100
O99         O  0.56513679  0.89856252  0.37735711    -0.57300
O100        O  0.49499908  0.84235268  0.41761298    -0.47400
O101        O  0.52811972  0.86551999  0.36479909    -0.53700
C102        C  0.53978703  0.82311784  0.40662105     0.86300
O103        O  0.56646403  0.87167339  0.44517982    -0.55600
O104        O  0.51263803  0.88436390  0.41744686    -0.58900
In105      In  0.34262122  0.84827207  0.62460449     1.36900
C106        C  0.38913009  0.85122770  0.61766178     0.78800
O107        O  0.33020933  0.83718585  0.58080791    -0.59700
O108        O  0.34372920  0.87720328  0.59191636    -0.50600
C109        C  0.29530496  0.80589758  0.63168692     0.71400
O110        O  0.31633353  0.80475956  0.62961203    -0.45400
C111        C  0.34946017  0.86960863  0.67480827     0.76100
O112        O  0.36773425  0.82941166  0.62126294    -0.57300
O113        O  0.34554225  0.88010502  0.65362232    -0.47400
O114        O  0.38649561  0.87133203  0.61721630    -0.53700
C115        C  0.33501831  0.85974874  0.57299719     0.86300
O116        O  0.29871320  0.82903904  0.63115068    -0.55600
O117        O  0.34953718  0.84850392  0.67024301    -0.58900
In118      In  0.53906525  0.86446386  0.62351257     1.36900
C119        C  0.55090130  0.88226512  0.67551554     0.78800
O120        O  0.51263889  0.88155637  0.62419387    -0.59700
O121        O  0.49562306  0.84082226  0.61306132    -0.50600
C122        C  0.56345092  0.88781157  0.57563421     0.71400
O123        O  0.54618759  0.89143436  0.58698728    -0.45400
C124        C  0.53774433  0.81865956  0.62301319     0.76100
O125        O  0.56571031  0.89530780  0.65539257    -0.57300
O126        O  0.51804787  0.82077102  0.61559317    -0.47400
O127        O  0.53113469  0.86017138  0.66916854    -0.53700
C128        C  0.49200777  0.86008253  0.61724010     0.86300
O129        O  0.57064999  0.87467523  0.59031209    -0.55600
O130        O  0.55806686  0.84008961  0.63072623    -0.58900
In131      In  0.14399106  0.67004535  0.62130257     1.36900
C132        C  0.14435858  0.62635099  0.60853633     0.78800
O133        O  0.14385564  0.65964186  0.66601722    -0.59700
O134        O  0.11503089  0.66955477  0.65336564    -0.50600
C135        C  0.19124094  0.71251397  0.62792046     0.71400
O136        O  0.18812306  0.69026975  0.62106765    -0.45400
C137        C  0.12583075  0.67795503  0.57285628     0.76100
O138        O  0.16538593  0.64886692  0.60891203    -0.57300
O139        O  0.11262474  0.65722802  0.58720107    -0.47400
O140        O  0.12330603  0.62645617  0.61436313    -0.53700
C141        C  0.12477519  0.66258089  0.67289177     0.86300
O142        O  0.16990961  0.71291485  0.63151776    -0.55600
O143        O  0.14668455  0.69551470  0.58469306    -0.58900
In144      In  0.14686435  0.67052077  0.40793440     1.36900
C145        C  0.14483435  0.62525175  0.41860949     0.78800
O146        O  0.15129372  0.69353412  0.44682836    -0.59700
O147        O  0.11358363  0.65953749  0.43950961    -0.50600
C148        C  0.19382760  0.71337674  0.39945135     0.71400
O149        O  0.19124968  0.69127873  0.40623426    -0.45400
C150        C  0.12903198  0.66411742  0.35585968     0.76100
O151        O  0.16613564  0.64740152  0.42120378    -0.57300
O152        O  0.12010853  0.67263164  0.37458338    -0.47400
O153        O  0.12453971  0.62659118  0.41209638    -0.53700
C154        C  0.12823610  0.67810330  0.45597977     0.86300
O155        O  0.17218796  0.71347867  0.39725461    -0.55600
O156        O  0.14642085  0.65893186  0.36386110    -0.58900
In157      In  0.34098136  0.49897504  0.40366588     1.36900
C158        C  0.38816030  0.54225457  0.41070621     0.78800
O159        O  0.34403393  0.47186419  0.43616974    -0.59700
O160        O  0.32660013  0.49483999  0.44686943    -0.50600
C161        C  0.29458667  0.49603394  0.39722785     0.71400
O162        O  0.31598402  0.51759070  0.40214668    -0.45400
C163        C  0.34612310  0.48527744  0.35263183     0.76100
O164        O  0.36693922  0.54295676  0.40808366    -0.57300
O165        O  0.33960356  0.46916692  0.37278811    -0.47400
O166        O  0.38505470  0.51927808  0.41014280    -0.53700
C167        C  0.33327065  0.47853276  0.45478346     0.86300
O168        O  0.29717550  0.47596043  0.39442300    -0.55600
O169        O  0.34991351  0.50783818  0.35868863    -0.58900
In170      In  0.53918917  0.67960933  0.40084611     1.36900
C171        C  0.49181130  0.63683183  0.40999127     0.78800
O172        O  0.52724650  0.67551410  0.35607498    -0.59700
O173        O  0.56355075  0.67680555  0.36536362    -0.50600
C174        C  0.53997767  0.72488005  0.40219713     0.71400
O175        O  0.52118179  0.70367674  0.41253729    -0.45400
C176        C  0.56674379  0.68242310  0.44718420     0.76100
O177        O  0.49554912  0.66002641  0.41127909    -0.57300
O178        O  0.55462165  0.66169215  0.43267189    -0.47400
O179        O  0.51248090  0.63577433  0.40488430    -0.53700
C180        C  0.54700183  0.67478602  0.34696370     0.86300
O181        O  0.55862240  0.72284191  0.39130376    -0.55600
O182        O  0.56781031  0.70239478  0.43603404    -0.58900
In183      In  0.33968207  0.49739352  0.62240113     1.36900
C184        C  0.38673997  0.54029549  0.61249201     0.78800
O185        O  0.35031321  0.50625372  0.66718683    -0.59700
O186        O  0.33885885  0.46741033  0.65305253    -0.50600
C187        C  0.29405705  0.49571042  0.62980623     0.71400
O188        O  0.31572209  0.51707797  0.62513757    -0.45400
C189        C  0.33060679  0.47586341  0.57183559     0.76100
O190        O  0.36587762  0.54144389  0.61604998    -0.57300
O191        O  0.32256987  0.49097632  0.57994501    -0.47400
O192        O  0.38331560  0.51723358  0.61385199    -0.53700
C193        C  0.34646749  0.48361963  0.67311564     0.86300
O194        O  0.29602724  0.47520002  0.63186130    -0.55600
O195        O  0.34270383  0.47038385  0.59022204    -0.58900
In196      In  0.53896610  0.67627390  0.61201275     1.36900
C197        C  0.49114533  0.63353479  0.60516780     0.78800
O198        O  0.56743556  0.69985577  0.57709965    -0.59700
O199        O  0.55070575  0.65839857  0.57707130    -0.50600
C200        C  0.53819739  0.72074783  0.61582933     0.71400
O201        O  0.51840786  0.69939748  0.60706308    -0.45400
C202        C  0.55145495  0.67056955  0.66395071     0.76100
O203        O  0.49539180  0.65667466  0.60079761    -0.57300
O204        O  0.56640957  0.67306012  0.64380119    -0.47400
O205        O  0.51157962  0.63248983  0.61190482    -0.53700
C206        C  0.56454981  0.67990733  0.56420047     0.86300
O207        O  0.55858067  0.71931862  0.62204301    -0.55600
O208        O  0.53095719  0.67130464  0.65749934    -0.58900
In209      In  0.62448979  0.10288411  0.21674561     1.36900
C210        C  0.58611245  0.11519305  0.21029730     0.78800
O211        O  0.60257428  0.06702919  0.18897812    -0.59700
O212        O  0.60568963  0.06135024  0.23227537    -0.50600
C213        C  0.66728985  0.11491325  0.18533152     0.71400
O214        O  0.64913687  0.11917411  0.17723997    -0.45400
C215        C  0.64215587  0.12186957  0.26751020     0.76100
O216        O  0.60887073  0.12904369  0.19939710    -0.57300
O217        O  0.63052146  0.09755284  0.26179554    -0.47400
O218        O  0.58327189  0.09564429  0.22404573    -0.53700
C219        C  0.59711193  0.05096145  0.20883616     0.86300
O220        O  0.66420594  0.10576766  0.20960781    -0.55600
O221        O  0.64585220  0.13696750  0.24705037    -0.58900
In222      In  0.54203100  0.92130313  0.22604426     1.36900
C223        C  0.48982890  0.90426396  0.21948499     0.78800
O224        O  0.53572675  0.89080182  0.25886940    -0.59700
O225        O  0.55751154  0.93172578  0.26962365    -0.50600
C226        C  0.57499134  0.91139768  0.19681728     0.71400
O227        O  0.55011138  0.89526106  0.19733094    -0.45400
C228        C  0.56028050  0.97152251  0.21315871     0.76100
O229        O  0.50290703  0.90005495  0.20142701    -0.57300
O230        O  0.56233726  0.96405446  0.23712147    -0.47400
O231        O  0.50291204  0.91570464  0.24104414    -0.53700
C232        C  0.54828956  0.90810951  0.27737298     0.86300
O233        O  0.58273298  0.93177014  0.21143248    -0.55600
O234        O  0.54853307  0.95330464  0.19545404    -0.58900
In235      In  0.75594936  0.10418155  0.10556467     1.36900
C236        C  0.72973524  0.05078482  0.10979971     0.78800
O237        O  0.73943482  0.10667277  0.14715613    -0.59700
O238        O  0.72624744  0.11780997  0.11101033    -0.50600
C239        C  0.80482163  0.14520850  0.11766167     0.71400
O240        O  0.79856060  0.12137174  0.12216107    -0.45400
C241        C  0.76152542  0.10664152  0.05056624     0.76100
O242        O  0.75168630  0.06515764  0.12242918    -0.57300
O243        O  0.74524543  0.11148072  0.06267045    -0.47400
O244        O  0.72174345  0.06372552  0.09598322    -0.53700
C245        C  0.72462138  0.11459987  0.13703182     0.86300
O246        O  0.78597143  0.14763798  0.10803256    -0.55600
O247        O  0.77519802  0.10107565  0.06662001    -0.58900
In248      In  0.67078486  0.92233540  0.11110863     1.36900
C249        C  0.70342062  0.97527721  0.11823346     0.78800
O250        O  0.68800705  0.92867374  0.06799238    -0.59700
O251        O  0.64649672  0.91403390  0.07187280    -0.50600
C252        C  0.67900581  0.88104977  0.11781558     0.71400
O253        O  0.69634299  0.90461277  0.12421492    -0.45400
C254        C  0.63169234  0.91252593  0.14678379     0.76100
O255        O  0.70988863  0.95862585  0.12598948    -0.57300
O256        O  0.62902909  0.91274839  0.12083269    -0.47400
O257        O  0.68045914  0.96476024  0.10753411    -0.53700
C258        C  0.66604971  0.92120061  0.05580450     0.86300
O259        O  0.65749071  0.87866924  0.10883476    -0.55600
O260        O  0.65425001  0.91688682  0.15482406    -0.58900
In261      In  0.75193959  0.10567685  0.91701572     1.36900
C262        C  0.72843402  0.05223961  0.91480917     0.78800
O263        O  0.76478956  0.10210594  0.96039746    -0.59700
O264        O  0.73833870  0.11675409  0.95579442    -0.50600
C265        C  0.80201727  0.14570289  0.90643332     0.71400
O266        O  0.79453508  0.12188837  0.90040632    -0.45400
C267        C  0.72144048  0.11461548  0.88191605     0.76100
O268        O  0.75255153  0.06729032  0.90784613    -0.57300
O269        O  0.72184240  0.11808117  0.90775152    -0.47400
O270        O  0.71684319  0.06450633  0.92188233    -0.53700
C271        C  0.75119490  0.11050001  0.97219051     0.86300
O272        O  0.78376120  0.14864482  0.91648818    -0.55600
O273        O  0.73704881  0.10703270  0.87362719    -0.58900
In274      In  0.67646071  0.92499984  0.92251637     1.36900
C275        C  0.70772637  0.97764469  0.91357114     0.78800
O276        O  0.65833796  0.92055207  0.88000041    -0.59700
O277        O  0.63466229  0.91648195  0.91546428    -0.50600
C278        C  0.67413050  0.87802846  0.91586302     0.71400
O279        O  0.69345954  0.89937536  0.90607400    -0.45400
C280        C  0.68092089  0.92668522  0.97756475     0.76100
O281        O  0.71523752  0.96142382  0.90710715    -0.57300
O282        O  0.65970941  0.92199610  0.96524783    -0.47400
O283        O  0.68469536  0.96674795  0.92399553    -0.53700
C284        C  0.63623893  0.91634977  0.88929981     0.86300
O285        O  0.65679721  0.88113962  0.92799072    -0.55600
O286        O  0.69986173  0.93076720  0.96168279    -0.58900
In287      In  0.62090204  0.10044665  0.80080902     1.36900
C288        C  0.58135294  0.11133947  0.80577926     0.78800
O289        O  0.64064490  0.13196019  0.76748941    -0.59700
O290        O  0.62768275  0.09194487  0.75709959    -0.50600
C291        C  0.66479565  0.11431958  0.83125848     0.71400
O292        O  0.64882300  0.12219785  0.83719991    -0.45400
C293        C  0.59552928  0.05004167  0.81524136     0.76100
O294        O  0.60444445  0.12655720  0.81557094    -0.57300
O295        O  0.59974950  0.05765721  0.79031612    -0.47400
O296        O  0.57870609  0.09107307  0.79383330    -0.53700
C297        C  0.63822443  0.11560230  0.74900155     0.86300
O298        O  0.65922383  0.10102575  0.80922712    -0.55600
O299        O  0.60357587  0.06816953  0.83322196    -0.58900
In300      In  0.54691556  0.92174010  0.80507736     1.36900
C301        C  0.49526036  0.90607807  0.81009670     0.78800
O302        O  0.55247997  0.95359163  0.83484299    -0.59700
O303        O  0.56686861  0.96418031  0.79323221    -0.50600
C304        C  0.57923915  0.91352694  0.83768274     0.71400
O305        O  0.55493839  0.89601283  0.83453758    -0.45400
C306        C  0.55284119  0.90643841  0.75494208     0.76100
O307        O  0.50679798  0.89854936  0.82696962    -0.57300
O308        O  0.56404555  0.93040490  0.76204606    -0.47400
O309        O  0.50961724  0.92024458  0.79039693    -0.53700
C310        C  0.56411446  0.97165316  0.81688548     0.86300
O311        O  0.58682140  0.93435571  0.82381116    -0.55600
O312        O  0.53890520  0.89001085  0.77356604    -0.58900
In313      In  0.33091443  0.09394805  0.10339727     1.36900
C314        C  0.29870959  0.04213811  0.11578774     0.78800
O315        O  0.30609245  0.08747190  0.06492382    -0.59700
O316        O  0.34626835  0.09699661  0.05984263    -0.50600
C317        C  0.33278240  0.14037983  0.11067803     0.71400
O318        O  0.31317050  0.11874772  0.11943645    -0.45400
C319        C  0.37291492  0.10300813  0.13437852     0.76100
O320        O  0.29324703  0.05960085  0.12323507    -0.57300
O321        O  0.37266797  0.10114226  0.10822057    -0.47400
O322        O  0.32019496  0.05136761  0.10236751    -0.53700
C323        C  0.32461017  0.09187245  0.04829401     0.86300
O324        O  0.35073341  0.13785490  0.09917377    -0.55600
O325        O  0.35183344  0.10046121  0.14474262    -0.58900
In326      In  0.24841120  0.91355738  0.11151366     1.36900
C327        C  0.27437317  0.96684565  0.11570760     0.78800
O328        O  0.26473510  0.91120261  0.15356254    -0.59700
O329        O  0.27823276  0.90020476  0.11780558    -0.50600
C330        C  0.19916306  0.87247548  0.12217480     0.71400
O331        O  0.20547242  0.89627038  0.12686395    -0.45400
C332        C  0.24422896  0.91163616  0.05619999     0.76100
O333        O  0.25142069  0.95255560  0.12628882    -0.57300
O334        O  0.26010555  0.90664263  0.06915677    -0.47400
O335        O  0.28354289  0.95385229  0.10434792    -0.53700
C336        C  0.27982504  0.90354842  0.14379342     0.86300
O337        O  0.21831166  0.87004885  0.11379683    -0.55600
O338        O  0.23019050  0.91709371  0.07153939    -0.58900
In339      In  0.38101377  0.91468043  0.22256332     1.36900
C340        C  0.41949663  0.90252421  0.21728455     0.78800
O341        O  0.40397283  0.94766848  0.19188326    -0.59700
O342        O  0.39983071  0.95734216  0.23356256    -0.50600
C343        C  0.33758003  0.90308898  0.19212710     0.71400
O344        O  0.35263087  0.89415102  0.18607066    -0.45400
C345        C  0.36454831  0.89844810  0.27423550     0.76100
O346        O  0.39636919  0.88778409  0.20728223    -0.57300
O347        O  0.37646739  0.92243900  0.26711162    -0.47400
O348        O  0.42253179  0.92270136  0.22977014    -0.53700
C349        C  0.40901395  0.96549673  0.20958416     0.86300
O350        O  0.34392476  0.91653096  0.21408603    -0.55600
O351        O  0.36031726  0.88226381  0.25484536    -0.58900
In352      In  0.46339814  0.09562173  0.21613732     1.36900
C353        C  0.51613681  0.11406843  0.21131831     0.78800
O354        O  0.46508438  0.12562424  0.24726617    -0.59700
O355        O  0.44713968  0.08525910  0.25946766    -0.50600
C356        C  0.43099502  0.10420405  0.18341751     0.71400
O357        O  0.45537518  0.12149596  0.18655852    -0.45400
C358        C  0.44610990  0.04489349  0.20651496     0.76100
O359        O  0.50305499  0.11776096  0.19265961    -0.57300
O360        O  0.44489714  0.05366770  0.22993154    -0.47400
O361        O  0.50286887  0.10272465  0.23272175    -0.53700
C362        C  0.45338515  0.10845473  0.26610853     0.86300
O363        O  0.42346343  0.08313439  0.19688072    -0.55600
O364        O  0.45663542  0.06209087  0.18753712    -0.58900
In365      In  0.25779192  0.91162965  0.92341234     1.36900
C366        C  0.27970696  0.96463061  0.92021858     0.78800
O367        O  0.24149714  0.91316276  0.96531846    -0.59700
O368        O  0.27384376  0.90603019  0.96364218    -0.50600
C369        C  0.21093253  0.86647529  0.91462212     0.71400
O370        O  0.21351012  0.88896595  0.90947410    -0.45400
C371        C  0.28904781  0.90494355  0.88799532     0.76100
O372        O  0.25675429  0.94901872  0.91002012    -0.57300
O373        O  0.28919141  0.90130680  0.91381892    -0.47400
O374        O  0.29072336  0.95306037  0.93117754    -0.53700
C375        C  0.25779572  0.90896914  0.97860817     0.86300
O376        O  0.23195398  0.86763667  0.92319207    -0.55600
O377        O  0.27282510  0.91196176  0.87997478    -0.58900
In378      In  0.33143573  0.09221573  0.91449736     1.36900
C379        C  0.30069013  0.03878314  0.91114322     0.78800
O380        O  0.34655158  0.09396906  0.87058194    -0.59700
O381        O  0.37461518  0.10746997  0.90364707    -0.50600
C382        C  0.32047910  0.13144947  0.90637140     0.71400
O383        O  0.30416605  0.10762632  0.89974341    -0.45400
C384        C  0.33726774  0.09532886  0.96963361     0.76100
O385        O  0.29272832  0.05407691  0.90265976    -0.57300
O386        O  0.35612167  0.10036620  0.95325375    -0.47400
O387        O  0.32412883  0.05085215  0.92075343    -0.53700
C388        C  0.37055402  0.10338082  0.87794245     0.86300
O389        O  0.34221935  0.13496144  0.91602341    -0.55600
O390        O  0.31538593  0.08894689  0.95782741    -0.58900
In391      In  0.38665476  0.91660928  0.80480260     1.36900
C392        C  0.42555117  0.90529141  0.81074299     0.78800
O393        O  0.36481104  0.88282922  0.77422351    -0.59700
O394        O  0.38101845  0.92239397  0.75964656    -0.50600
C395        C  0.34413247  0.90431757  0.83631193     0.71400
O396        O  0.36129727  0.89827607  0.84338912    -0.45400
C397        C  0.41215571  0.96791771  0.81577523     0.76100
O398        O  0.40281701  0.89094780  0.82149718    -0.57300
O399        O  0.40329581  0.95855170  0.79202895    -0.47400
O400        O  0.42813239  0.92484144  0.79712779    -0.53700
C401        C  0.36848909  0.89805347  0.75390307     0.86300
O402        O  0.34777567  0.91488407  0.81271558    -0.55600
O403        O  0.40857590  0.95112861  0.83430692    -0.58900
In404      In  0.45958247  0.09541692  0.79647518     1.36900
C405        C  0.51158127  0.11131090  0.80241405     0.78800
O406        O  0.45601955  0.06552908  0.82825255    -0.59700
O407        O  0.43794070  0.05204616  0.78834702    -0.50600
C408        C  0.42695529  0.10557108  0.82635458     0.71400
O409        O  0.45110336  0.12310034  0.82226553    -0.45400
C410        C  0.45266357  0.10680611  0.74445907     0.76100
O411        O  0.49974608  0.11846767  0.81912483    -0.57300
O412        O  0.44359200  0.08346224  0.75308002    -0.47400
O413        O  0.49749746  0.09784058  0.78217051    -0.53700
C414        C  0.44281126  0.04622190  0.81205656     0.86300
O415        O  0.41972393  0.08370189  0.81486741    -0.55600
O416        O  0.46539463  0.12467443  0.76236288    -0.58900
In417      In  0.24829269  0.34804062  0.10649954     1.36900
C418        C  0.27186204  0.31932600  0.11413217     0.78800
O419        O  0.22966139  0.32361653  0.06815063    -0.59700
O420        O  0.26027447  0.36400394  0.06314551    -0.50600
C421        C  0.20249147  0.34736459  0.11347556     0.71400
O422        O  0.20464597  0.32766338  0.12089199    -0.45400
C423        C  0.28013196  0.38939375  0.13850035     0.76100
O424        O  0.24886869  0.31153382  0.12421530    -0.57300
O425        O  0.28072575  0.39065499  0.11227192    -0.47400
O426        O  0.28202840  0.34122855  0.10156206    -0.53700
C427        C  0.24391032  0.34227455  0.05158292     0.86300
O428        O  0.22353941  0.36671187  0.10393422    -0.55600
O429        O  0.26313586  0.36706499  0.14849136    -0.58900
In430      In  0.32797164  0.24854893  0.10975556     1.36900
C431        C  0.29500948  0.26785240  0.11838562     0.78800
O432        O  0.34532907  0.26131765  0.15298510    -0.59700
O433        O  0.37011407  0.28123172  0.11842306    -0.50600
C434        C  0.32060330  0.19942251  0.11789085     0.71400
O435        O  0.30268819  0.20493559  0.12290260    -0.45400
C436        C  0.33339700  0.25268753  0.05449412     0.76100
O437        O  0.28873189  0.24456542  0.12547501    -0.57300
O438        O  0.35237066  0.26603758  0.07108286    -0.47400
O439        O  0.31759736  0.28061393  0.10710342    -0.53700
C440        C  0.36785143  0.27927901  0.14443505     0.86300
O441        O  0.34212210  0.21900750  0.10940352    -0.55600
O442        O  0.31147575  0.23692898  0.06608770    -0.58900
In443      In  0.37857457  0.47789482  0.22055263     1.36900
C444        C  0.40561277  0.45403533  0.20931538     0.78800
O445        O  0.33956154  0.44023789  0.21230944    -0.59700
O446        O  0.35335832  0.47045699  0.18168336    -0.50600
C447        C  0.36183939  0.47686072  0.27225501     0.71400
O448        O  0.37469601  0.46583835  0.26544418    -0.45400
C449        C  0.41529686  0.52937949  0.21430730     0.76100
O450        O  0.39689599  0.45415806  0.23315473    -0.57300
O451        O  0.42014840  0.51270692  0.22518246    -0.47400
O452        O  0.40087851  0.46643662  0.19081098    -0.53700
C453        C  0.33601155  0.44714836  0.18865580     0.86300
O454        O  0.35705283  0.48823668  0.25262344    -0.55600
O455        O  0.39140308  0.52001200  0.20654936    -0.58900
In456      In  0.45749870  0.37773051  0.22547483     1.36900
C457        C  0.43966065  0.40962554  0.21164823     0.78800
O458        O  0.49461549  0.41446001  0.23963742    -0.59700
O459        O  0.49800706  0.39513912  0.20404452    -0.50600
C460        C  0.45249788  0.35732099  0.27609309     0.71400
O461        O  0.44069090  0.36926269  0.26845845    -0.45400
C462        C  0.42478618  0.33509871  0.19526246     0.76100
O463        O  0.44041388  0.40291112  0.23637332    -0.57300
O464        O  0.44988552  0.34610903  0.19350772    -0.47400
O465        O  0.44793413  0.39999002  0.19361204    -0.53700
C466        C  0.50929007  0.41467871  0.22044900     0.86300
O467        O  0.46658010  0.35504024  0.25764852    -0.55600
O468        O  0.41669514  0.34517114  0.21291007    -0.58900
In469      In  0.38739753  0.47959486  0.80271404     1.36900
C470        C  0.41546208  0.45718349  0.81581516     0.78800
O471        O  0.42747458  0.51407931  0.79119802    -0.59700
O472        O  0.40408929  0.52199235  0.81881676    -0.50600
C473        C  0.36701274  0.47686050  0.75230540     0.71400
O474        O  0.38022011  0.46593288  0.75836847    -0.45400
C475        C  0.34489422  0.44746766  0.83404650     0.76100
O476        O  0.40654313  0.45638037  0.79172328    -0.57300
O477        O  0.36027568  0.47164854  0.84012765    -0.47400
O478        O  0.41067619  0.47006543  0.83348286    -0.53700
C479        C  0.42583811  0.53097411  0.80576910     0.86300
O480        O  0.36384750  0.48915113  0.77205933    -0.55600
O481        O  0.35053644  0.44035284  0.81175178    -0.58900
In482      In  0.46137267  0.37512545  0.80903810     1.36900
C483        C  0.44684079  0.41041289  0.81886362     0.78800
O484        O  0.42104888  0.34600685  0.82589888    -0.59700
O485        O  0.45367585  0.34253386  0.84025857    -0.50600
C486        C  0.45161846  0.35320795  0.75879205     0.71400
O487        O  0.44398271  0.36878991  0.76636255    -0.45400
C488        C  0.51403398  0.40921103  0.81364094     0.76100
O489        O  0.44506556  0.40043522  0.79530639    -0.57300
O490        O  0.50049176  0.39428594  0.83341808    -0.47400
O491        O  0.45598374  0.40237583  0.83785883    -0.53700
C492        C  0.42896055  0.33417676  0.84159167     0.86300
O493        O  0.46411141  0.34814471  0.77710916    -0.55600
O494        O  0.50125909  0.40527075  0.79131129    -0.58900
In495      In  0.25364545  0.35136846  0.91776579     1.36900
C496        C  0.27473020  0.31984741  0.91221212     0.78800
O497        O  0.26894613  0.36763953  0.87452392    -0.59700
O498        O  0.28711381  0.39288639  0.90941387    -0.50600
C499        C  0.20685098  0.35001725  0.90983368     0.71400
O500        O  0.20847174  0.32933982  0.90688695    -0.45400
C501        C  0.25541445  0.35521624  0.97310971     0.76100
O502        O  0.25114313  0.31208721  0.90386195    -0.57300
O503        O  0.27004592  0.37428189  0.95724797    -0.47400
O504        O  0.28647254  0.34279383  0.92244166    -0.53700
C505        C  0.28672556  0.39019199  0.88341306     0.86300
O506        O  0.22882277  0.37053681  0.91526328    -0.55600
O507        O  0.23962200  0.33381968  0.96072999    -0.58900
In508      In  0.32733873  0.24632779  0.92098431     1.36900
C509        C  0.29587446  0.26662533  0.90920749     0.78800
O510        O  0.30246852  0.22860151  0.95919356    -0.59700
O511        O  0.34258937  0.26009691  0.96434138    -0.50600
C512        C  0.32897134  0.20139954  0.91516543     0.71400
O513        O  0.30982401  0.20327935  0.90494169    -0.45400
C514        C  0.36999330  0.27895722  0.89085880     0.76100
O515        O  0.28934476  0.24320742  0.90205201    -0.57300
O516        O  0.36984126  0.27996347  0.91705716    -0.47400
O517        O  0.31814125  0.27899346  0.92142214    -0.53700
C518        C  0.32087263  0.24353527  0.97580284     0.86300
O519        O  0.34636288  0.22203337  0.92736383    -0.55600
O520        O  0.34837916  0.26131663  0.87996038    -0.58900
In521      In  0.91031179  0.39301146  0.22835861     1.36900
C522        C  0.89573117  0.42968567  0.22287268     0.78800
O523        O  0.88075990  0.37246596  0.26296001    -0.59700
O524        O  0.92207218  0.38960852  0.27209285    -0.50600
C525        C  0.89724872  0.34913936  0.19929679     0.71400
O526        O  0.88919760  0.36474204  0.19234289    -0.45400
C527        C  0.96013687  0.41981115  0.21161355     0.76100
O528        O  0.88003645  0.40555159  0.21692198    -0.57300
O529        O  0.95373956  0.41505902  0.23684903    -0.47400
O530        O  0.91826959  0.43476606  0.23149550    -0.53700
C531        C  0.89847932  0.37689469  0.28087683     0.86300
O532        O  0.91025690  0.35501574  0.22166183    -0.55600
O533        O  0.94102358  0.41126034  0.19451423    -0.58900
In534      In  0.08828902  0.46744284  0.22139007     1.36900
C535        C  0.10369439  0.51888878  0.21953133     0.78800
O536        O  0.05727657  0.46607832  0.19218094    -0.59700
O537        O  0.04500158  0.44484677  0.23053496    -0.50600
C538        C  0.09785071  0.43662368  0.18817832     0.71400
O539        O  0.11276718  0.46157314  0.18848009    -0.45400
C540        C  0.10380892  0.46176243  0.27178841     0.76100
O541        O  0.11153267  0.50847430  0.20180190    -0.57300
O542        O  0.07969089  0.45114442  0.26473059    -0.47400
O543        O  0.08960693  0.50356648  0.23874538    -0.53700
C544        C  0.03841402  0.45152573  0.20834053     0.86300
O545        O  0.07871776  0.42763611  0.20497483    -0.55600
O546        O  0.12037796  0.47470591  0.25281903    -0.58900
In547      In  0.08814602  0.33881909  0.10734778     1.36900
C548        C  0.03577645  0.30878330  0.11797322     0.78800
O549        O  0.09219043  0.35856607  0.14862558    -0.59700
O550        O  0.10053682  0.38206889  0.11211205    -0.50600
C551        C  0.13002722  0.33265896  0.11821139     0.71400
O552        O  0.10703111  0.31684767  0.12767763    -0.45400
C553        C  0.08551358  0.33355304  0.05204955     0.76100
O554        O  0.05196232  0.30090393  0.12320036    -0.57300
O555        O  0.09524979  0.35585834  0.06383946    -0.47400
O556        O  0.04654340  0.33184770  0.10769602    -0.53700
C557        C  0.09854196  0.38084681  0.13826344     0.86300
O558        O  0.13134680  0.35142598  0.10399914    -0.55600
O559        O  0.07704399  0.31412048  0.06848706    -0.58900
In560      In  0.90814154  0.26558608  0.11283238     1.36900
C561        C  0.96123768  0.28836593  0.11924604     0.78800
O562        O  0.91261573  0.25282215  0.06995109    -0.59700
O563        O  0.90349264  0.28349425  0.07349118    -0.50600
C564        C  0.86278774  0.21843095  0.11857479     0.71400
O565        O  0.88537607  0.22067386  0.12296445    -0.45400
C566        C  0.89893155  0.29441038  0.14873664     0.76100
O567        O  0.94579790  0.26405132  0.12527528    -0.57300
O568        O  0.89781226  0.29657714  0.12275117    -0.47400
O569        O  0.94937179  0.30021873  0.11154623    -0.53700
C570        C  0.90811928  0.26924676  0.05761810     0.86300
O571        O  0.86392310  0.23990036  0.11250601    -0.55600
O572        O  0.90458814  0.27719642  0.15674142    -0.58900
In573      In  0.91030097  0.39187752  0.81001497     1.36900
C574        C  0.89531968  0.42822784  0.81451165     0.78800
O575        O  0.94582460  0.41605494  0.83754233    -0.59700
O576        O  0.95185691  0.40726900  0.79610956    -0.50600
C577        C  0.90069966  0.35135893  0.84337190     0.71400
O578        O  0.89607831  0.36929881  0.85081580    -0.45400
C579        C  0.89336789  0.37273919  0.75943732     0.76100
O580        O  0.88008629  0.40430154  0.82157380    -0.57300
O581        O  0.91717985  0.39001106  0.76473848    -0.47400
O582        O  0.91756403  0.43323057  0.80529230    -0.53700
C583        C  0.96204400  0.41829251  0.81895133     0.86300
O584        O  0.90877957  0.35344222  0.81882056    -0.55600
O585        O  0.87770981  0.36521015  0.77995305    -0.58900
In586      In  0.09123019  0.47020260  0.80080339     1.36900
C587        C  0.10653150  0.52181761  0.80557888     0.78800
O588        O  0.12294047  0.47854312  0.76869982    -0.59700
O589        O  0.08218577  0.45737530  0.75630394    -0.50600
C590        C  0.10043715  0.43692475  0.83109288     0.71400
O591        O  0.11423030  0.46183770  0.83400735    -0.45400
C592        C  0.04125996  0.45195996  0.81514782     0.76100
O593        O  0.11669471  0.51135575  0.82052740    -0.57300
O594        O  0.04781388  0.44807127  0.79152681    -0.47400
O595        O  0.08989189  0.50640488  0.78793406    -0.53700
C596        C  0.10618630  0.46739545  0.74927132     0.86300
O597        O  0.08296582  0.42931897  0.81232650    -0.55600
O598        O  0.06020466  0.46489115  0.83195957    -0.58900
In599      In  0.09119342  0.34167107  0.91799649     1.36900
C600        C  0.03777597  0.30950744  0.91131697     0.78800
O601        O  0.08392144  0.32482958  0.96162285    -0.59700
O602        O  0.10236298  0.36650109  0.95684536    -0.50600
C603        C  0.13321315  0.33439790  0.90957637     0.71400
O604        O  0.10921663  0.31583352  0.90712227    -0.45400
C605        C  0.09925576  0.38023909  0.88220580     0.76100
O606        O  0.05419235  0.30236681  0.90460482    -0.57300
O607        O  0.09989107  0.38298838  0.90820461    -0.47400
O608        O  0.04877882  0.33284409  0.92064674    -0.53700
C609        C  0.09354031  0.34710777  0.97335065     0.86300
O610        O  0.13550585  0.35640906  0.91558533    -0.55600
O611        O  0.09478633  0.35778729  0.87418242    -0.58900
In612      In  0.90925534  0.26211251  0.92436987     1.36900
C613        C  0.96231411  0.28609242  0.91783298     0.78800
O614        O  0.90919135  0.27981838  0.88272142    -0.59700
O615        O  0.89689968  0.29241597  0.91837098    -0.50600
C616        C  0.86298697  0.21680857  0.91490599     0.71400
O617        O  0.88498320  0.21929294  0.90711140    -0.45400
C618        C  0.91079688  0.25841882  0.97936424     0.76100
O619        O  0.94704763  0.26232325  0.90971735    -0.57300
O620        O  0.90650862  0.27518854  0.96744411    -0.47400
O621        O  0.95026988  0.29680782  0.92818472    -0.53700
C622        C  0.90135778  0.29471194  0.89255500     0.86300
O623        O  0.86520893  0.23716234  0.92626664    -0.55600
O624        O  0.91410868  0.24345657  0.96312827    -0.58900
In625      In  0.74843524  0.66286020  0.10849273     1.36900
C626        C  0.72586242  0.69341171  0.11074640     0.78800
O627        O  0.76143924  0.67842076  0.06512845    -0.59700
O628        O  0.73236657  0.63760577  0.07020466    -0.50600
C629        C  0.79656824  0.66730558  0.11684167     0.71400
O630        O  0.79389055  0.68748945  0.11761441    -0.45400
C631        C  0.71725797  0.62554266  0.14506695     0.76100
O632        O  0.74909666  0.70165501  0.12052902    -0.57300
O633        O  0.71704784  0.62112540  0.11942754    -0.47400
O634        O  0.71503982  0.67035927  0.10076842    -0.53700
C635        C  0.74621321  0.65635594  0.05364020     0.86300
O636        O  0.77498292  0.64580801  0.11331742    -0.55600
O637        O  0.73378588  0.64911604  0.15243071    -0.58900
In638      In  0.67064736  0.76554993  0.10318526     1.36900
C639        C  0.70228039  0.74511320  0.11456962     0.78800
O640        O  0.64952757  0.75087999  0.14437474    -0.59700
O641        O  0.62837633  0.73153901  0.10733991    -0.50600
C642        C  0.66827567  0.81005037  0.10976838     0.71400
O643        O  0.68852544  0.80894311  0.11782392    -0.45400
C644        C  0.67824597  0.77018832  0.04829867     0.76100
O645        O  0.70800474  0.76795136  0.12308639    -0.57300
O646        O  0.65643039  0.75295491  0.05912733    -0.47400
O647        O  0.68051214  0.73313829  0.10136822    -0.53700
C648        C  0.62801576  0.73294380  0.13351929     0.86300
O649        O  0.64997043  0.78873869  0.09942103    -0.55600
O650        O  0.69601520  0.78499041  0.06553589    -0.58900
In651      In  0.61513450  0.53720428  0.22377734     1.36900
C652        C  0.58693596  0.55835895  0.20646126     0.78800
O653        O  0.65046016  0.57733088  0.21425254    -0.59700
O654        O  0.64631438  0.54476354  0.19088423    -0.50600
C655        C  0.63190786  0.54145426  0.27608571     0.71400
O656        O  0.61655691  0.54936731  0.26808428    -0.45400
C657        C  0.57828976  0.48531998  0.21959673     0.76100
O658        O  0.59548558  0.56058375  0.23095949    -0.57300
O659        O  0.60075298  0.49513673  0.20787131    -0.47400
O660        O  0.59244592  0.54488584  0.19031175    -0.53700
C661        C  0.65937235  0.56953746  0.19507173     0.86300
O662        O  0.63902381  0.53130381  0.25735907    -0.55600
O663        O  0.57516153  0.50164176  0.23353455    -0.58900
In664      In  0.53624159  0.63551104  0.21422668     1.36900
C665        C  0.48376152  0.59996137  0.21198491     0.78800
O666        O  0.53938576  0.60709370  0.18495551    -0.59700
O667        O  0.55747710  0.61418273  0.22508162    -0.50600
C668        C  0.56835550  0.67656007  0.18135749     0.71400
O669        O  0.54408997  0.66953245  0.18467752    -0.45400
C670        C  0.54493640  0.65674406  0.26496472     0.76100
O671        O  0.49511856  0.61765491  0.19356349    -0.57300
O672        O  0.55215966  0.64079048  0.25764162    -0.47400
O673        O  0.49867621  0.60151090  0.23173351    -0.53700
C674        C  0.55268357  0.60214250  0.20224159     0.86300
O675        O  0.57577918  0.66294805  0.19467610    -0.55600
O676        O  0.53367060  0.66270923  0.24612492    -0.58900
In677      In  0.75036687  0.66399240  0.92052770     1.36900
C678        C  0.72577922  0.69189696  0.91308833     0.78800
O679        O  0.73532085  0.64397231  0.87896076    -0.59700
O680        O  0.71830594  0.62121056  0.91579848    -0.50600
C681        C  0.79737002  0.66727247  0.91210678     0.71400
O682        O  0.79329244  0.68548471  0.90356700    -0.45400
C683        C  0.75558064  0.66921741  0.97532375     0.76100
O684        O  0.74981081  0.70112338  0.90560255    -0.57300
O685        O  0.73937761  0.64747333  0.96375372    -0.47400
O686        O  0.71491889  0.66887439  0.92324019    -0.53700
C687        C  0.71848297  0.62186920  0.88956135     0.86300
O688        O  0.77744506  0.64785066  0.92324720    -0.55600
O689        O  0.76897528  0.68822622  0.95885479    -0.58900
In690      In  0.67370602  0.76667158  0.91380222     1.36900
C691        C  0.70419740  0.74444830  0.90682626     0.78800
O692        O  0.69030608  0.77626344  0.95771781    -0.59700
O693        O  0.64866429  0.75034220  0.95215678    -0.50600
C694        C  0.68325979  0.81683495  0.90671942     0.71400
O695        O  0.69972143  0.80997404  0.89939065    -0.45400
C696        C  0.63470048  0.73813896  0.87744413     0.76100
O697        O  0.71264517  0.76860280  0.90134652    -0.57300
O698        O  0.63146319  0.73560633  0.90334189    -0.47400
O699        O  0.68041842  0.73199478  0.91522647    -0.53700
C700        C  0.66782754  0.76195662  0.96902039     0.86300
O701        O  0.66210681  0.79805975  0.91694237    -0.55600
O702        O  0.65772575  0.75582701  0.86980740    -0.58900
In703      In  0.61942214  0.53129113  0.80967412     1.36900
C704        C  0.59514490  0.55802045  0.82008693     0.78800
O705        O  0.57766482  0.49681826  0.80604169    -0.59700
O706        O  0.60688725  0.48854322  0.82137701    -0.50600
C707        C  0.63555578  0.53229027  0.75800231     0.71400
O708        O  0.61893249  0.53909898  0.76425790    -0.45400
C709        C  0.66181715  0.56230537  0.84154674     0.76100
O710        O  0.60576513  0.55899193  0.79705361    -0.57300
O711        O  0.64288332  0.54034905  0.85013102    -0.47400
O712        O  0.59628961  0.54284346  0.83801741    -0.53700
C713        C  0.58273689  0.47960773  0.81481696     0.86300
O714        O  0.64405149  0.52468833  0.77814625    -0.55600
O715        O  0.65988667  0.56737612  0.81652829    -0.58900
In716      In  0.54806208  0.63719954  0.79794634     1.36900
C717        C  0.49616388  0.60056505  0.80298521     0.78800
O718        O  0.53973135  0.65758059  0.76256318    -0.59700
O719        O  0.56552210  0.64251341  0.75529525    -0.50600
C720        C  0.57953863  0.68135983  0.82672290     0.71400
O721        O  0.55457972  0.67160610  0.82541493    -0.45400
C722        C  0.56542020  0.60598278  0.81568667     0.76100
O723        O  0.50713875  0.62121311  0.81788233    -0.57300
O724        O  0.56886400  0.61483060  0.79123033    -0.47400
O725        O  0.51124568  0.59940176  0.78513359    -0.53700
C726        C  0.55406418  0.65407813  0.74551312     0.86300
O727        O  0.58815047  0.66908537  0.81301743    -0.55600
O728        O  0.55341689  0.61343511  0.83171379    -0.58900
In729      In  0.90831419  0.54886473  0.22719858     1.36900
C730        C  0.89251840  0.49719147  0.22304120     0.78800
O731        O  0.93951867  0.55213468  0.19781207    -0.59700
O732        O  0.95118570  0.56913520  0.23842017    -0.50600
C733        C  0.90120089  0.58270257  0.19578255     0.71400
O734        O  0.88280738  0.55883122  0.19914905    -0.45400
C735        C  0.89358533  0.55511718  0.27743997     0.76100
O736        O  0.88631130  0.50880031  0.20481884    -0.57300
O737        O  0.91759576  0.56451515  0.27069686    -0.47400
O738        O  0.90486747  0.51133747  0.24367115    -0.53700
C739        C  0.95805943  0.56457219  0.21523286     0.86300
O740        O  0.92257708  0.58895948  0.20831948    -0.55600
O741        O  0.87678461  0.54280784  0.25836047    -0.58900
In742      In  0.08833615  0.62412778  0.22498198     1.36900
C743        C  0.10210676  0.58708373  0.22012530     0.78800
O744        O  0.12159081  0.64932422  0.25554144    -0.59700
O745        O  0.08152232  0.62938190  0.26964391    -0.50600
C746        C  0.09807441  0.66471752  0.19175202     0.71400
O747        O  0.10807542  0.65034533  0.18733434    -0.45400
C748        C  0.03697199  0.59623865  0.21403044     0.76100
O749        O  0.11590936  0.60986225  0.20943906    -0.57300
O750        O  0.04614915  0.60600808  0.23757313    -0.47400
O751        O  0.08198844  0.58361701  0.23329461    -0.53700
C752        C  0.10573190  0.64439052  0.27551354     0.86300
O753        O  0.08423285  0.65904788  0.21338922    -0.55600
O754        O  0.05403733  0.60002522  0.19575525    -0.58900
In755      In  0.09524418  0.75367498  0.10509964     1.36900
C756        C  0.04171572  0.73204494  0.10727740     0.78800
O757        O  0.09647662  0.77040309  0.06252833    -0.59700
O758        O  0.10366914  0.73833988  0.06629915    -0.50600
C759        C  0.14025927  0.79992600  0.11624047     0.71400
O760        O  0.11757634  0.79798852  0.11792397    -0.45400
C761        C  0.09982384  0.72081558  0.13985074     0.76100
O762        O  0.05733117  0.75413343  0.11885695    -0.57300
O763        O  0.10331067  0.72079455  0.11404188    -0.47400
O764        O  0.05353831  0.72203869  0.09503764    -0.53700
C765        C  0.10164922  0.75440909  0.05042397     0.86300
O766        O  0.13924732  0.77857232  0.11011650    -0.55600
O767        O  0.09428427  0.73789874  0.14820014    -0.58900
In768      In  0.91301237  0.67863899  0.10894997     1.36900
C769        C  0.96650316  0.70935733  0.11595250     0.78800
O770        O  0.91100246  0.66333710  0.15283430    -0.59700
O771        O  0.90075300  0.63641577  0.11916912    -0.50600
C772        C  0.87091368  0.68566843  0.11664557     0.71400
O773        O  0.89479852  0.70439321  0.11966776    -0.45400
C774        C  0.91058661  0.67378760  0.05350325     0.76100
O775        O  0.95049667  0.71641940  0.12449304    -0.57300
O776        O  0.90421415  0.65458332  0.06983168    -0.47400
O777        O  0.95506014  0.68693642  0.10434617    -0.53700
C778        C  0.90372552  0.64001883  0.14503998     0.86300
O779        O  0.86892792  0.66382271  0.11054141    -0.55600
O780        O  0.91824474  0.69569137  0.06548403    -0.58900
In781      In  0.90894267  0.54762545  0.80888534     1.36900
C782        C  0.89235047  0.49576040  0.81324029     0.78800
O783        O  0.87779903  0.54149685  0.77660381    -0.59700
O784        O  0.91884786  0.56436032  0.76578257    -0.50600
C785        C  0.90116663  0.58113709  0.83982654     0.71400
O786        O  0.88388494  0.55667185  0.83832200    -0.45400
C787        C  0.95886838  0.56308560  0.82138560     0.76100
O788        O  0.88696187  0.50772406  0.83159287    -0.57300
O789        O  0.95171355  0.56692068  0.79793598    -0.47400
O790        O  0.90421513  0.50964344  0.79230163    -0.53700
C791        C  0.89497677  0.55478192  0.75821334     0.86300
O792        O  0.92164296  0.58819435  0.82541591    -0.55600
O793        O  0.94048333  0.55127591  0.83897201    -0.58900
In794      In  0.08851766  0.62572199  0.80525991     1.36900
C795        C  0.10448893  0.58988905  0.80761532     0.78800
O796        O  0.05610377  0.60053052  0.83584242    -0.59700
O797        O  0.04532335  0.60810545  0.79593925    -0.50600
C798        C  0.10015931  0.66819450  0.83687336     0.71400
O799        O  0.10481061  0.65036379  0.84490695    -0.45400
C800        C  0.10216094  0.64344706  0.75349135     0.76100
O801        O  0.11841815  0.61290454  0.81782624    -0.57300
O802        O  0.07826210  0.62940021  0.76112955    -0.47400
O803        O  0.08325097  0.58569330  0.79607264    -0.53700
C804        C  0.03776552  0.59720956  0.81935693     0.86300
O805        O  0.09116164  0.66509526  0.81252467    -0.55600
O806        O  0.11939463  0.64868843  0.77231833    -0.58900
In807      In  0.09556271  0.75996227  0.91781880     1.36900
C808        C  0.04213968  0.73586692  0.91631764     0.78800
O809        O  0.09572701  0.74282670  0.87572463    -0.59700
O810        O  0.10551868  0.72781844  0.91138251    -0.50600
C811        C  0.13776743  0.80825654  0.90696375     0.71400
O812        O  0.11403829  0.80268202  0.90208639    -0.45400
C813        C  0.10002508  0.76654506  0.97249721     0.76100
O814        O  0.05657520  0.75698479  0.90259163    -0.57300
O815        O  0.10444983  0.75006777  0.96026928    -0.47400
O816        O  0.05502496  0.72761260  0.92987526    -0.53700
C817        C  0.10186855  0.72650832  0.88541840     0.86300
O818        O  0.13957165  0.78874654  0.91531727    -0.55600
O819        O  0.09380483  0.77981004  0.95669953    -0.58900
In820      In  0.91428138  0.68198606  0.91917326     1.36900
C821        C  0.96693118  0.71211493  0.90976498     0.78800
O822        O  0.92031265  0.70595245  0.95796590    -0.59700
O823        O  0.90852847  0.66535281  0.96279383    -0.50600
C824        C  0.87143778  0.68651183  0.90822324     0.71400
O825        O  0.89487155  0.70498270  0.90258024    -0.45400
C826        C  0.90425160  0.63995935  0.88814463     0.76100
O827        O  0.95027059  0.71711008  0.89845905    -0.57300
O828        O  0.90307640  0.63905983  0.91435323    -0.47400
O829        O  0.95651582  0.69204217  0.92547313    -0.53700
C830        C  0.91454959  0.68700974  0.97451978     0.86300
O831        O  0.87035310  0.66615889  0.91859587    -0.55600
O832        O  0.91022631  0.66213431  0.87774620    -0.58900
In833      In  0.85141071  0.53661679  0.40880915     1.36900
C834        C  0.85258748  0.49253089  0.41799630     0.78800
O835        O  0.85210017  0.52772033  0.36398674    -0.59700
O836        O  0.87941324  0.56708990  0.37721483    -0.50600
C837        C  0.80433690  0.53257297  0.40166929     0.71400
O838        O  0.80689543  0.51295277  0.40787028    -0.45400
C839        C  0.86919277  0.56107968  0.45826982     0.76100
O840        O  0.83122794  0.49312890  0.41781143    -0.57300
O841        O  0.88425530  0.55834705  0.44155177    -0.47400
O842        O  0.87345840  0.51472437  0.41419422    -0.53700
C843        C  0.87033000  0.55060356  0.35742732     0.86300
O844        O  0.82609929  0.55441282  0.39903403    -0.55600
O845        O  0.84618690  0.55314031  0.44877229    -0.58900
In846      In  0.85229621  0.35016212  0.41050920     1.36900
C847        C  0.85309877  0.39477137  0.42058157     0.78800
O848        O  0.84277668  0.32764825  0.45061067    -0.59700
O849        O  0.88263932  0.35868312  0.44510653    -0.50600
C850        C  0.80650438  0.30810951  0.39676805     0.71400
O851        O  0.80856797  0.33009720  0.40270542    -0.45400
C852        C  0.87498352  0.35820863  0.36091487     0.76100
O853        O  0.83185089  0.37241066  0.42119707    -0.57300
O854        O  0.88013249  0.34657968  0.38009016    -0.47400
O855        O  0.87405082  0.39404930  0.41597668    -0.53700
C856        C  0.86551336  0.34155541  0.46136361     0.86300
O857        O  0.82809755  0.30783710  0.39764420    -0.55600
O858        O  0.85906718  0.36578079  0.36738739    -0.58900
In859      In  0.85677155  0.54107275  0.62529781     1.36900
C860        C  0.85655369  0.49649375  0.61647311     0.78800
O861        O  0.85471667  0.56430823  0.58885782    -0.59700
O862        O  0.88733115  0.55814216  0.59025651    -0.50600
C863        C  0.80905022  0.53485883  0.63062916     0.71400
O864        O  0.81277631  0.51684805  0.62125206    -0.45400
C865        C  0.87433052  0.55360109  0.67740684     0.76100
O866        O  0.83594186  0.49827283  0.61378053    -0.57300
O867        O  0.88500819  0.57027334  0.65785555    -0.47400
O868        O  0.87750098  0.51784083  0.62301162    -0.53700
C869        C  0.87436291  0.56603704  0.57617252     0.86300
O870        O  0.83000492  0.55620500  0.63744313    -0.55600
O871        O  0.85537486  0.53133503  0.67018387    -0.58900
In872      In  0.84882209  0.35045232  0.62912913     1.36900
C873        C  0.85193253  0.39649902  0.62024101     0.78800
O874        O  0.85020724  0.35987689  0.67392104    -0.59700
O875        O  0.87732325  0.34818905  0.65962507    -0.50600
C876        C  0.80389670  0.30524873  0.63666307     0.71400
O877        O  0.80468726  0.32693703  0.63221271    -0.45400
C878        C  0.86309367  0.34339415  0.57884454     0.76100
O879        O  0.82997823  0.37504672  0.62276418    -0.57300
O880        O  0.88034154  0.35580223  0.59757124    -0.47400
O881        O  0.87234953  0.39432914  0.62239760    -0.53700
C882        C  0.86844621  0.35515776  0.67981727     0.86300
O883        O  0.82639103  0.30682591  0.63772571    -0.55600
O884        O  0.83934642  0.33431755  0.58636585    -0.58900
In885      In  0.65911892  0.16397998  0.61993078     1.36900
C886        C  0.61217372  0.15970983  0.61088879     0.78800
O887        O  0.67523127  0.17904337  0.57786484    -0.59700
O888        O  0.65868674  0.13771174  0.58481440    -0.50600
C889        C  0.70418642  0.20708310  0.63292281     0.71400
O890        O  0.68220837  0.20652859  0.63150722    -0.45400
C891        C  0.65280442  0.14064182  0.66890471     0.76100
O892        O  0.63345470  0.18185973  0.61331921    -0.57300
O893        O  0.65949508  0.13265706  0.64767628    -0.47400
O894        O  0.61509686  0.13980512  0.61273571    -0.53700
C895        C  0.66919411  0.15687265  0.56773275     0.86300
O896        O  0.70286314  0.18516204  0.62839213    -0.55600
O897        O  0.64884458  0.15957891  0.66470113    -0.58900
In898      In  0.65903725  0.16917492  0.39750872     1.36900
C899        C  0.61163910  0.16411772  0.40375610     0.78800
O900        O  0.65186638  0.16806342  0.35182692    -0.59700
O901        O  0.65967792  0.13894185  0.36864421    -0.50600
C902        C  0.70480862  0.21287167  0.38918479     0.71400
O903        O  0.68321129  0.21286872  0.39195763    -0.45400
C904        C  0.66783992  0.15921559  0.44951496     0.76100
O905        O  0.63259579  0.18648949  0.40115075    -0.57300
O906        O  0.65752430  0.14092910  0.43149109    -0.47400
O907        O  0.61519978  0.14457641  0.40370544    -0.53700
C908        C  0.65486068  0.14858599  0.34730669     0.86300
O909        O  0.70266426  0.19024414  0.38990995    -0.55600
O910        O  0.67376132  0.18177664  0.44055933    -0.58900
In911      In  0.45809887  0.14255487  0.39933757     1.36900
C912        C  0.50645968  0.14979530  0.40411861     0.78800
O913        O  0.42454701  0.12856567  0.43092047    -0.59700
O914        O  0.45285995  0.11658447  0.43628468    -0.50600
C915        C  0.45850490  0.18761001  0.40354226     0.71400
O916        O  0.47811848  0.18524556  0.41055892    -0.45400
C917        C  0.44788816  0.12723709  0.34617154     0.76100
O918        O  0.50161036  0.16813764  0.40885924    -0.57300
O919        O  0.43433755  0.11183860  0.36575049    -0.47400
O920        O  0.48638074  0.12772964  0.39750611    -0.53700
C921        C  0.43356179  0.11756806  0.44651147     0.86300
O922        O  0.43836899  0.16660299  0.39463514    -0.55600
O923        O  0.46509411  0.15021210  0.35370637    -0.58900
In924      In  0.46063061  0.14326831  0.61090197     1.36900
C925        C  0.50837153  0.14903533  0.60462636     0.78800
O926        O  0.47218774  0.14601950  0.65552077    -0.59700
O927        O  0.43372994  0.11440843  0.64450020    -0.50600
C928        C  0.46031194  0.18842174  0.61126624     0.71400
O929        O  0.47920221  0.18656433  0.60084526    -0.45400
C930        C  0.43499216  0.11916862  0.56351443     0.76100
O931        O  0.50474881  0.16859582  0.60427142    -0.57300
O932        O  0.45039951  0.11347579  0.57615954    -0.47400
O933        O  0.48734036  0.12661606  0.60677195    -0.53700
C934        C  0.45100765  0.12599539  0.66340302     0.86300
O935        O  0.44134605  0.16693497  0.62085506    -0.55600
O936        O  0.43040859  0.13497034  0.57661696    -0.58900
C937        C  0.41315968  0.12187675  0.49029814    -0.12200
C938        C  0.42509528  0.10985135  0.47571900     0.10000
C939        C  0.43448800  0.09558001  0.49077119    -0.12200
C940        C  0.43487636  0.09600765  0.51988341    -0.12200
C941        C  0.42607239  0.11090498  0.53443360     0.10000
C942        C  0.41371738  0.12246791  0.51945132    -0.12200
H943        H  0.40585753  0.13311134  0.47926696     0.14000
H944        H  0.44367372  0.08601472  0.48006750     0.14000
H945        H  0.44432072  0.08672762  0.53084380     0.14000
H946        H  0.40670222  0.13403775  0.53008109     0.14000
C947        C  0.53686660  0.13176411  0.40375600    -0.12200
C948        C  0.53344827  0.15374732  0.40571970     0.10000
C949        C  0.55595125  0.17933186  0.40823094    -0.12200
C950        C  0.58158852  0.18285076  0.40810837    -0.12200
C951        C  0.58491674  0.16077967  0.40574492     0.10000
C952        C  0.56236334  0.13523987  0.40393129    -0.12200
H953        H  0.51982100  0.11185668  0.40182444     0.14000
H954        H  0.55375085  0.19659449  0.40968979     0.14000
H955        H  0.59873589  0.20275333  0.40951102     0.14000
H956        H  0.56441683  0.11792356  0.40200116     0.14000
C957        C  0.65482315  0.13145070  0.52280080    -0.12200
C958        C  0.67292086  0.15425750  0.53778153     0.10000
C959        C  0.69202062  0.17671500  0.52316229    -0.12200
C960        C  0.69158256  0.17726792  0.49418469    -0.12200
C961        C  0.67202388  0.15540324  0.47913953     0.10000
C962        C  0.65436005  0.13201919  0.49355523    -0.12200
H963        H  0.63974272  0.11399670  0.53365591     0.14000
H964        H  0.70629354  0.19449615  0.53419299     0.14000
H965        H  0.70558390  0.19545173  0.48357117     0.14000
H966        H  0.63896857  0.11498662  0.48240601     0.14000
C967        C  0.56275795  0.13195237  0.60575429    -0.12200
C968        C  0.58584374  0.15718974  0.60704034     0.10000
C969        C  0.58339631  0.17986489  0.60599346    -0.12200
C970        C  0.55817569  0.17728212  0.60441377    -0.12200
C971        C  0.53506544  0.15199811  0.60381594     0.10000
C972        C  0.53759365  0.12937492  0.60422387    -0.12200
H973        H  0.56409774  0.11415916  0.60654265     0.14000
H974        H  0.60091084  0.19955466  0.60698544     0.14000
H975        H  0.55674032  0.19502734  0.60429933     0.14000
H976        H  0.52008811  0.10964596  0.60390062     0.14000
C977        C  0.73010221  0.25601623  0.63906917    -0.12200
C978        C  0.72959422  0.23181224  0.63784195     0.10000
C979        C  0.75370195  0.23178447  0.63872953    -0.12200
C980        C  0.77804122  0.25574750  0.63949084    -0.12200
C981        C  0.77852114  0.27998136  0.63925879     0.10000
C982        C  0.75437747  0.27991666  0.63964631    -0.12200
H983        H  0.71177383  0.25655034  0.63843920     0.14000
H984        H  0.75377181  0.21332312  0.63784375     0.14000
H985        H  0.79643578  0.25532916  0.63920718     0.14000
H986        H  0.75423687  0.29835414  0.63958353     0.14000
C987        C  0.83131890  0.44745736  0.61056096    -0.12200
C988        C  0.85587872  0.47118711  0.61352039     0.10000
C989        C  0.87944467  0.47027149  0.61595346    -0.12200
C990        C  0.87828827  0.44586795  0.61698188    -0.12200
C991        C  0.85354381  0.42211914  0.61579679     0.10000
C992        C  0.83014586  0.42307824  0.61179107    -0.12200
H993        H  0.81289073  0.44768058  0.60847575     0.14000
H994        H  0.89863788  0.48835157  0.61802582     0.14000
H995        H  0.89662795  0.44558704  0.61978666     0.14000
H996        H  0.81086703  0.40500341  0.61047154     0.14000
C997        C  0.85107580  0.31708547  0.50622175    -0.12200
C998        C  0.87025504  0.33925826  0.49128053     0.10000
C999        C  0.89060846  0.36092325  0.50604730    -0.12200
C1000       C  0.89009810  0.36140479  0.53527249    -0.12200
C1001       C  0.86917505  0.34025946  0.54987040     0.10000
C1002       C  0.85051006  0.31762728  0.53518778    -0.12200
H1003       H  0.83525985  0.30006296  0.49545539     0.14000
H1004       H  0.90551923  0.37835455  0.49502735     0.14000
H1005       H  0.90456140  0.37917934  0.54619385     0.14000
H1006       H  0.83428579  0.30103826  0.54604423     0.14000
C1007       C  0.75721295  0.28550443  0.39007418    -0.12200
C1008       C  0.78068101  0.28425744  0.39064136     0.10000
C1009       C  0.77905881  0.25964249  0.38764881    -0.12200
C1010       C  0.75425696  0.23640660  0.38583678    -0.12200
C1011       C  0.73074614  0.23748881  0.38687254     0.10000
C1012       C  0.73237221  0.26223669  0.38819870    -0.12200
H1013       H  0.75799723  0.30430889  0.39216658     0.14000
H1014       H  0.79690426  0.25821567  0.38791616     0.14000
H1015       H  0.75348197  0.21753607  0.38474868     0.14000
H1016       H  0.71448203  0.26354773  0.38892518     0.14000
C1017       C  0.85989074  0.57688008  0.50254048    -0.12200
C1018       C  0.87639398  0.57040557  0.48743377     0.10000
C1019       C  0.89637790  0.56830198  0.50178007    -0.12200
C1020       C  0.89770361  0.56960878  0.53099967    -0.12200
C1021       C  0.87920963  0.57325119  0.54621857     0.10000
C1022       C  0.86136172  0.57841760  0.53156920    -0.12200
H1023       H  0.84447381  0.57886690  0.49205558     0.14000
H1024       H  0.90939221  0.56333209  0.49068287     0.14000
H1025       H  0.91170168  0.56558198  0.54168850     0.14000
H1026       H  0.84693628  0.58142235  0.54260005     0.14000
C1027       C  0.87726932  0.46802455  0.42125120    -0.12200
C1028       C  0.85299188  0.46773985  0.42150730     0.10000
C1029       C  0.82893328  0.44339459  0.42369922    -0.12200
C1030       C  0.82906019  0.41963054  0.42467613    -0.12200
C1031       C  0.85325428  0.41984947  0.42336681     0.10000
C1032       C  0.87739459  0.44423044  0.42218565    -0.12200
H1033       H  0.89609093  0.48656278  0.41961221     0.14000
H1034       H  0.80995573  0.44265689  0.42390516     0.14000
H1035       H  0.81018472  0.40107334  0.42548527     0.14000
H1036       H  0.89631447  0.44488405  0.42113463     0.14000
C1037       C  0.01257762  0.72112349  0.91760467    -0.15200
C1038       C  0.99632281  0.72833184  0.90540510    -0.30400
H1039       H  0.00373072  0.70316152  0.93020240     0.13800
H1040       H  0.00455250  0.74615635  0.89267904     0.14400
C1041       C  0.10348907  0.68984071  0.85429996    -0.12100
C1042       C  0.10374278  0.70717339  0.86833623    -0.13600
C1043       C  0.88817794  0.55805480  0.73023040    -0.12100
C1044       C  0.88291126  0.55854071  0.70597350    -0.13600
C1045       C  0.98625883  0.57215431  0.82711562    -0.12100
C1046       C  0.01012140  0.58247802  0.82634099    -0.13600
C1047       C  0.89863162  0.59993559  0.85708444    -0.12100
C1048       C  0.89994442  0.61761926  0.87135133    -0.13600
C1049       C  0.91517500  0.69042244  0.00509695    -0.15200
C1050       C  0.90922123  0.67038624  0.02291849    -0.30400
H1051       H  0.92095230  0.70996585  0.01308571     0.13800
H1052       H  0.90331939  0.65082630  0.01489197     0.14400
C1053       C  0.10441749  0.75363354  0.02007832    -0.15200
C1054       C  0.10097844  0.76975925  0.00290360    -0.30400
H1055       H  0.10796992  0.73851736  0.01165094     0.13800
H1056       H  0.09711958  0.78466755  0.01133503     0.14400
C1057       C  0.01196753  0.71777041  0.10709327    -0.15200
C1058       C  0.99625275  0.72586707  0.11878061    -0.30400
H1059       H  0.00237534  0.69898464  0.09599162     0.13800
H1060       H  0.00513491  0.74462565  0.12983962     0.14400
C1061       C  0.10121117  0.68550916  0.17326679    -0.12100
C1062       C  0.10142855  0.70218611  0.15819574    -0.13600
C1063       C  0.87985847  0.55656788  0.32932143    -0.12100
C1064       C  0.88609893  0.55729616  0.30529960    -0.13600
C1065       C  0.98526043  0.57323966  0.20941610    -0.12100
C1066       C  0.00897752  0.58253520  0.20883929    -0.13600
C1067       C  0.89995293  0.61913285  0.16393632    -0.12100
C1068       C  0.89877065  0.60170717  0.17864637    -0.13600
C1069       C  0.57428841  0.58825176  0.82389799    -0.12100
C1070       C  0.58300251  0.57355200  0.82505589    -0.13600
C1071       C  0.61396826  0.72099345  0.85828930    -0.12100
C1072       C  0.59719382  0.70404195  0.84341437    -0.13600
C1073       C  0.82294100  0.66753005  0.91073825    -0.15200
C1074       C  0.84703211  0.68839320  0.90408731    -0.30400
H1075       H  0.82186790  0.64933777  0.91786965     0.13800
H1076       H  0.84893035  0.70699500  0.89719156     0.14400
C1077       C  0.70006686  0.59925456  0.87303509    -0.12100
C1078       C  0.68322311  0.58121734  0.85913303    -0.13600
C1079       C  0.71059931  0.70599189  0.91128844    -0.15200
C1080       C  0.72079889  0.73176125  0.90449972    -0.30400
H1081       H  0.68978254  0.69446346  0.91755681     0.13800
H1082       H  0.74161071  0.74381317  0.89846671     0.14400
C1083       C  0.57246320  0.57099579  0.19813562    -0.12100
C1084       C  0.56213197  0.58430047  0.19691524    -0.13600
C1085       C  0.68302306  0.77314282  0.01794549    -0.15200
C1086       C  0.66362211  0.75870404  0.99942277    -0.30400
H1087       H  0.70279979  0.78784452  0.01071891     0.13800
H1088       H  0.64373553  0.74438186  0.00671488     0.14400
C1089       C  0.58676848  0.69820507  0.16373944    -0.12100
C1090       C  0.60495270  0.71484538  0.14980738    -0.13600
C1091       C  0.82215681  0.66731324  0.11866654    -0.15200
C1092       C  0.84703862  0.68882992  0.11911819    -0.30400
H1093       H  0.82012141  0.64779267  0.11786919     0.13800
H1094       H  0.84983972  0.70863631  0.12008374     0.14400
C1095       C  0.75870053  0.67260953  0.00567801    -0.15200
C1096       C  0.74417222  0.65253816  0.02329283    -0.30400
H1097       H  0.77290721  0.69219354  0.01367547     0.13800
H1098       H  0.72997414  0.63294953  0.01530113     0.14400
C1099       C  0.69914732  0.60517852  0.16407910    -0.12100
C1100       C  0.68193372  0.58807837  0.17852593    -0.13600
C1101       C  0.71116046  0.70818862  0.10980660    -0.15200
C1102       C  0.71954551  0.73311296  0.11891271    -0.30400
H1103       H  0.69156551  0.69728577  0.10012445     0.13800
H1104       H  0.73893815  0.74468122  0.12881446     0.14400
C1105       C  0.99200238  0.30141272  0.91644912    -0.15200
C1106       C  0.00807710  0.29207512  0.90912335    -0.30400
H1107       H  0.00125192  0.32193542  0.92325330     0.13800
H1108       H  0.99952307  0.27161254  0.90243747     0.14400
C1109       C  0.11129609  0.56923259  0.80919987    -0.12100
C1110       C  0.11194714  0.54879011  0.80872243    -0.13600
C1111       C  0.10324351  0.41818801  0.84845319    -0.12100
C1112       C  0.10254431  0.40103939  0.86333104    -0.13600
C1113       C  0.88486964  0.36321526  0.73170794    -0.12100
C1114       C  0.87821446  0.35809349  0.70772980    -0.13600
C1115       C  0.88854862  0.44880597  0.81658969    -0.12100
C1116       C  0.88753762  0.46902739  0.81630500    -0.13600
C1117       C  0.99021318  0.43219159  0.82302781    -0.12100
C1118       C  0.01400907  0.44222644  0.82189435    -0.13600
C1119       C  0.89821810  0.33058259  0.86156243    -0.12100
C1120       C  0.89862513  0.31368146  0.87577255    -0.13600
C1121       C  0.91183269  0.25614207  0.00986020    -0.15200
C1122       C  0.90802673  0.27189372  0.02711614    -0.30400
H1123       H  0.91547433  0.24100928  0.01823967     0.13800
H1124       H  0.90432491  0.28697156  0.01868489     0.14400
C1125       C  0.09450215  0.35065210  0.00383159    -0.15200
C1126       C  0.08411641  0.32999260  0.02155119    -0.30400
H1127       H  0.10397040  0.37077388  0.01184047     0.13800
H1128       H  0.07463275  0.30986482  0.01354223     0.14400
C1129       C  0.00644261  0.29226673  0.12273187    -0.15200
C1130       C  0.99087274  0.30298109  0.11958357    -0.30400
H1131       H  0.99761719  0.27130446  0.12757209     0.13800
H1132       H  0.00040419  0.32405083  0.11480437     0.14400
C1133       C  0.10807042  0.56606027  0.21755816    -0.12100
C1134       C  0.10861903  0.54564340  0.21746373    -0.13600
C1135       C  0.10166349  0.41935314  0.16984455    -0.12100
C1136       C  0.10181089  0.40272528  0.15505295    -0.13600
C1137       C  0.89230610  0.36854194  0.30937781    -0.12100
C1138       C  0.88587207  0.36277106  0.33335976    -0.13600
C1139       C  0.88907064  0.45035585  0.22034284    -0.12100
C1140       C  0.88795742  0.47053312  0.22023847    -0.13600
C1141       C  0.98744703  0.43339520  0.20350454    -0.12100
C1142       C  0.01119438  0.44300543  0.20254652    -0.13600
C1143       C  0.89389833  0.32741820  0.18222895    -0.19300
C1144       C  0.89490469  0.31117953  0.16757714    -0.13600
C1145       C  0.15672552  0.33065249  0.90660362    -0.15200
C1146       C  0.18197106  0.35145895  0.90836610    -0.30400
H1147       H  0.15325869  0.31067327  0.90429329     0.13800
H1148       H  0.18480857  0.37121144  0.91077120     0.14400
C1149       C  0.27899351  0.27893656  0.90466455    -0.15200
C1150       C  0.28896204  0.30471551  0.91144967    -0.30400
H1151       H  0.25862041  0.26692847  0.89720830     0.13800
H1152       H  0.30950090  0.31594869  0.91871902     0.14400
C1153       C  0.54125827  0.43082668  0.81655288    -0.12100
C1154       C  0.56195065  0.45203545  0.81690842    -0.13600
C1155       C  0.41073940  0.31328468  0.85997482    -0.12100
C1156       C  0.39290620  0.29707876  0.87451815    -0.13600
C1157       C  0.44782571  0.55814354  0.80738896    -0.12100
C1158       C  0.46892211  0.57900843  0.80647132    -0.13600
C1159       C  0.43850524  0.42922125  0.82326815    -0.12100
C1160       C  0.42922969  0.44344428  0.82233145    -0.13600
C1161       C  0.32312821  0.42872890  0.85145689    -0.12100
C1162       C  0.30579466  0.41127684  0.86556254    -0.13600
C1163       C  0.53636888  0.43662761  0.21729886    -0.12100
C1164       C  0.55709755  0.45786545  0.21713643    -0.13600
C1165       C  0.43600184  0.55684692  0.21105002    -0.12100
C1166       C  0.45651222  0.57818900  0.21021674    -0.13600
C1167       C  0.41954360  0.44025530  0.20416310    -0.12100
C1168       C  0.42966825  0.42678004  0.20498111    -0.13600
C1169       C  0.33706047  0.25559052  0.02407038    -0.15200
C1170       C  0.31698154  0.24130372  0.00619859    -0.30400
H1171       H  0.35683509  0.26960905  0.01624730     0.13800
H1172       H  0.29726645  0.22714414  0.01402667     0.14400
C1173       C  0.38915757  0.29694428  0.16282773    -0.12100
C1174       C  0.40636449  0.31346491  0.17773918    -0.13600
C1175       C  0.17783070  0.34878361  0.11418720    -0.15200
C1176       C  0.15356808  0.32943498  0.12250898    -0.30400
H1177       H  0.17983639  0.36702144  0.10583159     0.13800
H1178       H  0.15087905  0.31110500  0.13133391     0.14400
C1179       C  0.25714753  0.35835550  0.00361272    -0.15200
C1180       C  0.24152044  0.33858888  0.02111613    -0.30400
H1181       H  0.27183133  0.37764724  0.01186685     0.13800
H1182       H  0.22680892  0.31925140  0.01299014     0.14400
C1183       C  0.31471703  0.42895746  0.17050940    -0.12100
C1184       C  0.29820788  0.41155542  0.15574624    -0.13600
C1185       C  0.28700479  0.30518707  0.11553068    -0.15200
C1186       C  0.27759176  0.27953293  0.12231945    -0.30400
H1187       H  0.30747048  0.31681990  0.10820884     0.13800
H1188       H  0.25719485  0.26710365  0.12950949     0.14400
C1189       C  0.44911105  0.11242018  0.71609025    -0.12100
C1190       C  0.44781234  0.11735793  0.69190294    -0.13600
C1191       C  0.42490045  0.99578849  0.82078535    -0.12100
C1192       C  0.43393606  0.01935283  0.81952300    -0.13600
C1193       C  0.33224389  0.17779509  0.91404310    -0.15200
C1194       C  0.31466615  0.15351395  0.90394470    -0.30400
H1195       H  0.35065787  0.18075937  0.92331182     0.13800
H1196       H  0.29583199  0.14963083  0.89498684     0.14400
C1197       C  0.40876660  0.10920090  0.84359873    -0.12100
C1198       C  0.39161931  0.10803823  0.85877750    -0.13600
C1199       C  0.18597225  0.84018244  0.91215718    -0.15200
C1200       C  0.16159949  0.83559991  0.90465281    -0.30400
H1201       H  0.18788467  0.82332721  0.91835262     0.13800
H1202       H  0.15891785  0.85199607  0.89856710     0.14400
C1203       C  0.30667056  0.90191006  0.86932028    -0.12100
C1204       C  0.32295147  0.90123942  0.85429570    -0.13600
C1205       C  0.29378917  0.99413856  0.92008063    -0.15200
C1206       C  0.28415062  0.00918190  0.91003662    -0.30400
H1207       H  0.31370604  0.00408005  0.92917743     0.13800
H1208       H  0.26422320  0.99982679  0.90107599     0.14400
C1209       C  0.44812373  0.11460347  0.29353238    -0.12100
C1210       C  0.44567913  0.11934157  0.31745569    -0.13600
C1211       C  0.43532779  0.01708659  0.20223973    -0.12100
C1212       C  0.42401545  0.99324631  0.20332439    -0.13600
C1213       C  0.16671477  0.82452612  0.11959613    -0.15200
C1214       C  0.17142482  0.84922397  0.12462346    -0.30400
H1215       H  0.18372096  0.82203270  0.11589672     0.13800
H1216       H  0.15496948  0.85249897  0.12856398     0.14400
C1217       C  0.24229072  0.91166634  0.02556896    -0.15200
C1218       C  0.25859701  0.90771934  0.00922462    -0.30400
H1219       H  0.22767440  0.91572942  0.01633224     0.13800
H1220       H  0.27337800  0.90393766  0.01853118     0.14400
C1221       C  0.29842793  0.90006395  0.16080239    -0.12100
C1222       C  0.31559388  0.89966584  0.17486529    -0.13600
C1223       C  0.33559993  0.16705913  0.11251059    -0.15200
C1224       C  0.31655708  0.17217312  0.12074199    -0.30400
H1225       H  0.35435626  0.18345216  0.10482716     0.13800
H1226       H  0.29744533  0.15610332  0.12804933     0.14400
C1227       C  0.32089684  0.09104558  0.01780834    -0.15200
C1228       C  0.34090170  0.09662359  0.00011367    -0.30400
H1229       H  0.30132349  0.08574941  0.00980322     0.13800
H1230       H  0.36048997  0.10202949  0.00815596     0.14400
C1231       C  0.39525238  0.10681931  0.15124280    -0.12100
C1232       C  0.41274963  0.10752511  0.16567691    -0.13600
C1233       C  0.28144879  0.01308364  0.12159616    -0.15200
C1234       C  0.29018762  0.99635396  0.11515010    -0.30400
H1235       H  0.26153310  0.00543902  0.12992348     0.13800
H1236       H  0.31023615  0.00475048  0.10684268     0.14400
C1237       C  0.46825051  0.90050946  0.81334841    -0.12100
C1238       C  0.44738156  0.90038129  0.81354317    -0.13600
C1239       C  0.64983600  0.12960060  0.69631891    -0.12100
C1240       C  0.64572318  0.12299237  0.72045480    -0.13600
C1241       C  0.55929831  0.11619144  0.80756822    -0.12100
C1242       C  0.53849342  0.11633140  0.80649525    -0.13600
C1243       C  0.58306793  0.02256322  0.82207508    -0.12100
C1244       C  0.57370928  0.99895635  0.82246633    -0.13600
C1245       C  0.68840385  0.84462098  0.90430620    -0.15200
C1246       C  0.67079876  0.85099493  0.91451927    -0.30400
H1247       H  0.70699612  0.85992605  0.89517451     0.13800
H1248       H  0.65254433  0.83523884  0.92383052     0.14400
C1249       C  0.61455716  0.91225771  0.87136503    -0.12100
C1250       C  0.59729848  0.91087047  0.85613761    -0.13600
C1251       C  0.83607402  0.19269910  0.91246626    -0.15200
C1252       C  0.82996644  0.16844204  0.90340015    -0.30400
H1253       H  0.82000753  0.19513487  0.92047045     0.13800
H1254       H  0.84544374  0.16505800  0.89552210     0.14400
C1255       C  0.68674688  0.11834381  0.84892305    -0.12100
C1256       C  0.70357661  0.11800217  0.86360982    -0.13600
C1257       C  0.71396988  0.02268820  0.91565832    -0.15200
C1258       C  0.72428389  0.00711139  0.90981348    -0.30400
H1259       H  0.69331707  0.01322451  0.92241576     0.13800
H1260       H  0.74480804  0.01595114  0.90287196     0.14400
C1261       C  0.66509775  0.83374813  0.11114024    -0.15200
C1262       C  0.68369204  0.85821795  0.11988762    -0.30400
H1263       H  0.64621943  0.83082558  0.10326806     0.13800
H1264       H  0.70283340  0.86176518  0.12758184     0.14400
C1265       C  0.66313277  0.92087641  0.02525127    -0.15200
C1266       C  0.68373282  0.92727492  0.00812241    -0.30400
H1267       H  0.64360917  0.91509085  0.01671552     0.13800
H1268       H  0.70314776  0.93269165  0.01669100     0.14400
C1269       C  0.83212644  0.16859917  0.12220351    -0.15200
C1270       C  0.83645246  0.19340561  0.11907173    -0.30400
H1271       H  0.84865524  0.16548446  0.12664414     0.13800
H1272       H  0.81940305  0.19576918  0.11479557     0.14400
C1273       C  0.76424575  0.10669695  0.02007349    -0.15200
C1274       C  0.74974939  0.11244177  0.00266669    -0.30400
H1275       H  0.77805049  0.10117285  0.01176198     0.13800
H1276       H  0.73606134  0.11814758  0.01091683     0.14400
C1277       C  0.71364005  0.02124815  0.11018863    -0.15200
C1278       C  0.72118995  0.00469672  0.12088512    -0.30400
H1279       H  0.69432343  0.01261139  0.09985281     0.13800
H1280       H  0.74061276  0.01269416  0.13080115     0.14400
C1281       C  0.46257058  0.89819743  0.21562296    -0.12100
C1282       C  0.44138905  0.89755721  0.21491605    -0.13600
C1283       C  0.59349958  0.90788111  0.18016493    -0.12100
C1284       C  0.61074938  0.90861659  0.16558417    -0.13600
C1285       C  0.64928981  0.13126205  0.29563744    -0.12100
C1286       C  0.65271451  0.13845767  0.31959445    -0.13600
C1287       C  0.54344824  0.12020299  0.20809063    -0.12100
C1288       C  0.56446096  0.12051081  0.20762088    -0.13600
C1289       C  0.58234824  0.02278888  0.20550491    -0.12100
C1290       C  0.57119494  0.99899297  0.20683823    -0.13600
C1291       C  0.68913038  0.11861403  0.16788894    -0.12100
C1292       C  0.70621012  0.11837655  0.15375437    -0.13600
C1293       C  0.55652068  0.66178157  0.71676013    -0.12100
C1294       C  0.55640817  0.66657087  0.69233773    -0.13600
C1295       C  0.35110977  0.47751727  0.70085063    -0.12100
C1296       C  0.35720414  0.47605792  0.72456862    -0.13600
C1297       C  0.41603219  0.58866847  0.60134810    -0.12200
C1298       C  0.41324140  0.56395307  0.60791940     0.10000
C1299       C  0.43617055  0.56206230  0.61131315    -0.12200
C1300       C  0.46147531  0.58464009  0.60940901    -0.12200
C1301       C  0.46438187  0.60954247  0.60384391     0.10000
C1302       C  0.44147732  0.61133420  0.59919592    -0.12200
H1303       H  0.39859677  0.59053833  0.59839170     0.14000
H1304       H  0.43456205  0.54324299  0.61636712     0.14000
H1305       H  0.47877998  0.58268315  0.61306346     0.14000
H1306       H  0.44320579  0.63031461  0.59480014     0.14000
C1307       C  0.58747414  0.70628793  0.49177710    -0.12200
C1308       C  0.57520850  0.68252842  0.47640450     0.10000
C1309       C  0.56535588  0.65835531  0.49075555    -0.12200
C1310       C  0.56455304  0.65770835  0.51987814    -0.12200
C1311       C  0.57366480  0.68122953  0.53515554     0.10000
C1312       C  0.58673724  0.70564498  0.52093437    -0.12200
H1313       H  0.59541646  0.72524777  0.48132027     0.14000
H1314       H  0.55580282  0.63972122  0.47953934     0.14000
H1315       H  0.55452206  0.63859878  0.53024290     0.14000
H1316       H  0.59421322  0.72412553  0.53215427     0.14000
C1317       C  0.54951335  0.67120193  0.31771873    -0.12100
C1318       C  0.54835850  0.66617178  0.29319386    -0.13600
C1319       C  0.30730226  0.46780147  0.49819113    -0.12200
C1320       C  0.32900807  0.46931260  0.48394074     0.10000
C1321       C  0.34846885  0.46695379  0.49902680    -0.12200
C1322       C  0.34760208  0.46600457  0.52828264    -0.12200
C1323       C  0.32731167  0.46746960  0.54246849     0.10000
C1324       C  0.30641906  0.46681629  0.52711941    -0.12200
H1325       H  0.29193974  0.46936770  0.48699096     0.14000
H1326       H  0.36549236  0.46828081  0.48845891     0.14000
H1327       H  0.36403192  0.46671218  0.53971864     0.14000
H1328       H  0.29045258  0.46774889  0.53756134     0.14000
C1329       C  0.34946618  0.47905848  0.32459492    -0.12100
C1330       C  0.35406533  0.47706795  0.30055194    -0.13600
C1331       C  0.41704552  0.59145412  0.41583337    -0.12200
C1332       C  0.41461200  0.56639874  0.41329370     0.10000
C1333       C  0.43773516  0.56465863  0.41170112    -0.12200
C1334       C  0.46287028  0.58763004  0.41151921    -0.12200
C1335       C  0.46534704  0.61274358  0.41308539     0.10000
C1336       C  0.44226462  0.61449230  0.41579305    -0.12200
H1337       H  0.39947164  0.59326975  0.41721996     0.14000
H1338       H  0.43639146  0.54557755  0.40974291     0.14000
H1339       H  0.48035351  0.58573630  0.40945248     0.14000
H1340       H  0.44365705  0.63363317  0.41705692     0.14000
C1341       C  0.11422989  0.65428570  0.30326623    -0.12100
C1342       C  0.12029396  0.66006793  0.32735650    -0.13600
C1343       C  0.13607134  0.70397024  0.52876643    -0.12200
C1344       C  0.11954721  0.68038693  0.54343939     0.10000
C1345       C  0.10102380  0.65777016  0.52844072    -0.12200
C1346       C  0.10153127  0.65780354  0.49924899    -0.12200
C1347       C  0.12065993  0.68041996  0.48476431     0.10000
C1348       C  0.13664212  0.70396896  0.49969286    -0.12200
H1349       H  0.15032487  0.72180936  0.53971999     0.14000
H1350       H  0.08794537  0.63934077  0.53919817     0.14000
H1351       H  0.08888438  0.63940166  0.48825772     0.14000
H1352       H  0.15128984  0.72179958  0.48902963     0.14000
C1353       C  0.11514270  0.65782120  0.70103560    -0.12100
C1354       C  0.10906923  0.65215014  0.72513380    -0.13600
C1355       C  0.51469489  0.77015023  0.61235892    -0.12200
C1356       C  0.53725669  0.79326173  0.62233221     0.10000
C1357       C  0.55971416  0.79211740  0.63102106    -0.12200
C1358       C  0.55988291  0.76841877  0.62916098    -0.12200
C1359       C  0.53759744  0.74547127  0.61858025     0.10000
C1360       C  0.51485841  0.74640909  0.61051067    -0.12200
H1361       H  0.49708139  0.77050431  0.60563963     0.14000
H1362       H  0.57729208  0.80962538  0.63894299     0.14000
H1363       H  0.57756875  0.76813718  0.63574970     0.14000
H1364       H  0.49735006  0.72890706  0.60246716     0.14000
C1365       C  0.55511435  0.89861135  0.72729234    -0.12100
C1366       C  0.55506325  0.89191692  0.70358225    -0.13600
C1367       C  0.24591006  0.78390090  0.63675667    -0.12200
C1368       C  0.26875926  0.78192197  0.63322480     0.10000
C1369       C  0.26598417  0.75689709  0.62918427    -0.12200
C1370       C  0.24069809  0.73424196  0.62789413    -0.12200
C1371       C  0.21781730  0.73625603  0.63084641     0.10000
C1372       C  0.22057756  0.76117757  0.63565344    -0.12200
H1373       H  0.24760107  0.80303039  0.63983248     0.14000
H1374       H  0.28331615  0.75489333  0.62625879     0.14000
H1375       H  0.23906378  0.71522596  0.62417347     0.14000
H1376       H  0.20317487  0.76317637  0.63796120     0.14000
C1377       C  0.35419694  0.88077271  0.70232044    -0.12100
C1378       C  0.35979256  0.88861602  0.72599975    -0.13600
C1379       C  0.43865511  0.87838976  0.61510020    -0.12200
C1380       C  0.41531048  0.85330468  0.61507974     0.10000
C1381       C  0.41733431  0.83040306  0.61399716    -0.12200
C1382       C  0.44239622  0.83260188  0.61372680    -0.12200
C1383       C  0.46569781  0.85769531  0.61486239     0.10000
C1384       C  0.46365035  0.88057135  0.61515264    -0.12200
H1385       H  0.43761792  0.89634575  0.61587189     0.14000
H1386       H  0.39959906  0.81084048  0.61388999     0.14000
H1387       H  0.44353506  0.81469118  0.61350509     0.14000
H1388       H  0.48136552  0.90014552  0.61587683     0.14000
C1389       C  0.51761536  0.77426037  0.41395846    -0.12200
C1390       C  0.53999629  0.79807529  0.40515471     0.10000
C1391       C  0.56244002  0.79769369  0.39515840    -0.12200
C1392       C  0.56245791  0.77382544  0.39403959    -0.12200
C1393       C  0.54008150  0.75006220  0.40299737     0.10000
C1394       C  0.51766619  0.75047515  0.41292538    -0.12200
H1395       H  0.50004347  0.77399835  0.42172063     0.14000
H1396       H  0.57995663  0.81581007  0.38828014     0.14000
H1397       H  0.58000195  0.77398990  0.38633777     0.14000
H1398       H  0.50013702  0.73240496  0.41987675     0.14000
C1399       C  0.56220671  0.90994249  0.50243169    -0.12200
C1400       C  0.57150843  0.89563289  0.48758701     0.10000
C1401       C  0.58351369  0.88361280  0.50236978    -0.12200
C1402       C  0.58365950  0.88357124  0.53153596    -0.12200
C1403       C  0.57159060  0.89534972  0.54632456     0.10000
C1404       C  0.56218672  0.90974527  0.53152068    -0.12200
H1405       H  0.55283474  0.91939476  0.49165017     0.14000
H1406       H  0.59086011  0.87245361  0.49148504     0.14000
H1407       H  0.59101825  0.87229475  0.54237593     0.14000
H1408       H  0.55282153  0.91906445  0.54234815     0.14000
C1409       C  0.55138115  0.90165600  0.30554580    -0.12100
C1410       C  0.55222864  0.89612149  0.32962182    -0.13600
C1411       C  0.24756584  0.78532602  0.39125723    -0.12200
C1412       C  0.27080852  0.78368231  0.39221977     0.10000
C1413       C  0.26849090  0.75860257  0.39327546    -0.12200
C1414       C  0.24334288  0.73560653  0.39475740    -0.12200
C1415       C  0.22014929  0.73735252  0.39512571     0.10000
C1416       C  0.22243041  0.76233541  0.39264134    -0.12200
H1417       H  0.24881110  0.80443025  0.39043822     0.14000
H1418       H  0.28610313  0.75679411  0.39393114     0.14000
H1419       H  0.24208240  0.71653346  0.39634385     0.14000
H1420       H  0.20483329  0.76418924  0.39275592     0.14000
C1421       C  0.31060320  0.84409608  0.49961154    -0.12200
C1422       C  0.33091712  0.86581188  0.48509580     0.10000
C1423       C  0.34983983  0.88815786  0.50016590    -0.12200
C1424       C  0.34988686  0.88751754  0.52943794    -0.12200
C1425       C  0.33115798  0.86446440  0.54364921     0.10000
C1426       C  0.31085140  0.84334896  0.52852324    -0.12200
H1427       H  0.29557972  0.82672723  0.48858103     0.14000
H1428       H  0.36575982  0.90510937  0.48943848     0.14000
H1429       H  0.36581709  0.90398001  0.54076199     0.14000
H1430       H  0.29608025  0.82546425  0.53903547     0.14000
C1431       C  0.35340885  0.88393169  0.32677862    -0.12100
C1432       C  0.35737940  0.89050755  0.30266410    -0.13600
C1433       C  0.44201757  0.83421992  0.41962036    -0.12200
C1434       C  0.46521433  0.85913577  0.42295998     0.10000
C1435       C  0.46297826  0.88172861  0.42654977    -0.12200
C1436       C  0.43803726  0.87965851  0.42505289    -0.12200
C1437       C  0.41500143  0.85499322  0.41985229     0.10000
C1438       C  0.41706765  0.83216637  0.41798297    -0.12200
H1439       H  0.44325878  0.81650942  0.41692175     0.14000
H1440       H  0.48058436  0.90114025  0.42940602     0.14000
H1441       H  0.43692129  0.89751776  0.42689757     0.14000
H1442       H  0.39955163  0.81289497  0.41422755     0.14000
C1443       C  0.26633731  0.51611200  0.40486789    -0.12200
C1444       C  0.26851009  0.49438323  0.39623099     0.10000
C1445       C  0.24543490  0.47077001  0.38827133    -0.12200
C1446       C  0.22053736  0.46887388  0.38911213    -0.12200
C1447       C  0.21832987  0.49049873  0.39808260     0.10000
C1448       C  0.24143490  0.51416378  0.40587308    -0.12200
H1449       H  0.28382360  0.53445068  0.41139204     0.14000
H1450       H  0.24659443  0.45370466  0.38167369     0.14000
H1451       H  0.20298148  0.45037714  0.38306681     0.14000
H1452       H  0.24024578  0.53106794  0.41300093     0.14000
C1453       C  0.11965366  0.55201121  0.41393967    -0.12200
C1454       C  0.14317257  0.55140159  0.41852393     0.10000
C1455       C  0.16677819  0.57494978  0.42558732    -0.12200
C1456       C  0.16712746  0.59896700  0.42687670    -0.12200
C1457       C  0.14384317  0.59971797  0.42117863     0.10000
C1458       C  0.11999134  0.57598461  0.41526926    -0.12200
H1459       H  0.10118944  0.53411420  0.40849454     0.14000
H1460       H  0.18515155  0.57494635  0.42929048     0.14000
H1461       H  0.18576695  0.61702093  0.43140822     0.14000
H1462       H  0.10177775  0.57605985  0.41069890     0.14000
C1463       C  0.11153386  0.46050805  0.29995532    -0.12100
C1464       C  0.11751198  0.46213135  0.32425398    -0.13600
C1465       C  0.26694468  0.51735854  0.62441123    -0.12200
C1466       C  0.26832099  0.49472383  0.63122992     0.10000
C1467       C  0.24475631  0.47087555  0.63747403    -0.12200
C1468       C  0.22012304  0.46955980  0.63630237    -0.12200
C1469       C  0.21871376  0.49199509  0.62857240     0.10000
C1470       C  0.24233080  0.51598891  0.62302640    -0.12200
H1471       H  0.28482226  0.53594614  0.61936069     0.14000
H1472       H  0.24530955  0.45313268  0.64269619     0.14000
H1473       H  0.20214715  0.45081577  0.64065419     0.14000
H1474       H  0.24175150  0.53356104  0.61705343     0.14000
C1475       C  0.13576293  0.44032472  0.52548550    -0.12200
C1476       C  0.11976642  0.44772941  0.54018256     0.10000
C1477       C  0.10089911  0.45131165  0.52547066    -0.12200
C1478       C  0.10056579  0.45101222  0.49633239    -0.12200
C1479       C  0.11900876  0.44700514  0.48159756     0.10000
C1480       C  0.13534758  0.43990550  0.49641129    -0.12200
H1481       H  0.15030680  0.43719654  0.53633155     0.14000
H1482       H  0.08832047  0.45702297  0.53628198     0.14000
H1483       H  0.08769940  0.45645617  0.48545328     0.14000
H1484       H  0.14958624  0.43645667  0.48560184     0.14000
C1485       C  0.11926756  0.46836098  0.69652417    -0.12100
C1486       C  0.11360842  0.46694454  0.72085672    -0.13600
C1487       C  0.16832990  0.57822791  0.59606116    -0.12200
C1488       C  0.14447710  0.55383090  0.59941383     0.10000
C1489       C  0.12034514  0.55352022  0.60242142    -0.12200
C1490       C  0.12026630  0.57724027  0.60411693    -0.12200
C1491       C  0.14429722  0.60166321  0.60276386     0.10000
C1492       C  0.16825469  0.60204209  0.59779286    -0.12200
H1493       H  0.18717706  0.57895227  0.59356901     0.14000
H1494       H  0.10165777  0.53496802  0.60486598     0.14000
H1495       H  0.10149497  0.57642705  0.60767985     0.14000
H1496       H  0.18701223  0.62066994  0.59642581     0.14000
C1497       C  0.75357141  0.54983201  0.63865759    -0.12200
C1498       C  0.73105341  0.52498807  0.63267339     0.10000
C1499       C  0.73430494  0.50326142  0.62721052    -0.12200
C1500       C  0.75970689  0.50642078  0.62713972    -0.12200
C1501       C  0.78226232  0.53133300  0.63262321     0.10000
C1502       C  0.77902448  0.55296578  0.63872983    -0.12200
H1503       H  0.75155599  0.56690607  0.64284449     0.14000
H1504       H  0.71726445  0.48392083  0.62247720     0.14000
H1505       H  0.76171191  0.48943296  0.62240446     0.14000
H1506       H  0.79617197  0.57239223  0.64292095     0.14000
C1507       C  0.64829139  0.53174861  0.70553616    -0.12100
C1508       C  0.64361560  0.53275797  0.72975201    -0.13600
C1509       C  0.43935946  0.23852600  0.62674850    -0.12200
C1510       C  0.46182298  0.26240940  0.61819307     0.10000
C1511       C  0.48368900  0.26178947  0.60681327    -0.12200
C1512       C  0.48305234  0.23765506  0.60407932    -0.12200
C1513       C  0.46059917  0.21378707  0.61278979     0.10000
C1514       C  0.43873622  0.21445674  0.62404839    -0.12200
H1515       H  0.42220156  0.23841623  0.63553698     0.14000
H1516       H  0.50123962  0.27991664  0.60002062     0.14000
H1517       H  0.50022043  0.23770746  0.59541559     0.14000
H1518       H  0.42119084  0.19638004  0.63095880     0.14000
C1519       C  0.44730939  0.34325462  0.73076313    -0.12100
C1520       C  0.44599110  0.33812903  0.70627811    -0.13600
C1521       C  0.53535293  0.42588786  0.61525889    -0.12200
C1522       C  0.53379783  0.40112877  0.61539011     0.10000
C1523       C  0.55732956  0.40014009  0.61361999    -0.12200
C1524       C  0.58212844  0.42355447  0.61305022    -0.12200
C1525       C  0.58377734  0.44831889  0.61418881     0.10000
C1526       C  0.56017770  0.44933061  0.61460764    -0.12200
H1527       H  0.51743520  0.42714326  0.61629263     0.14000
H1528       H  0.55662330  0.38128525  0.61349203     0.14000
H1529       H  0.60002830  0.42225015  0.61256224     0.14000
H1530       H  0.56092000  0.46819756  0.61529412     0.14000
C1531       C  0.75087484  0.55080297  0.39341945    -0.12200
C1532       C  0.72742674  0.52602176  0.39662866     0.10000
C1533       C  0.72941845  0.50321645  0.39991701    -0.12200
C1534       C  0.75444048  0.50528870  0.40090435    -0.12200
C1535       C  0.77792005  0.53018580  0.39852733     0.10000
C1536       C  0.77589457  0.55286225  0.39430278    -0.12200
H1537       H  0.74991874  0.56870905  0.39092131     0.14000
H1538       H  0.71168121  0.48387183  0.40252902     0.14000
H1539       H  0.75541351  0.48746393  0.40410445     0.14000
H1540       H  0.79366449  0.57228685  0.39238464     0.14000
C1541       C  0.64552946  0.55023374  0.50276683    -0.12200
C1542       C  0.66678339  0.55155803  0.48758539     0.10000
C1543       C  0.68917757  0.55457598  0.50207747    -0.12200
C1544       C  0.68906634  0.55308286  0.53100927    -0.12200
C1545       C  0.66673976  0.54894518  0.54615036     0.10000
C1546       C  0.64553502  0.54897191  0.53201527    -0.12200
H1547       H  0.62791763  0.54762175  0.49207532     0.14000
H1548       H  0.70589296  0.55578108  0.49092982     0.14000
H1549       H  0.70565305  0.55316280  0.54146036     0.14000
H1550       H  0.62795981  0.54546485  0.54329704     0.14000
C1551       C  0.64412233  0.54186232  0.32910010    -0.12100
C1552       C  0.63971989  0.54305293  0.30474152    -0.13600
C1553       C  0.48386181  0.26032605  0.41524878    -0.12200
C1554       C  0.46149311  0.26208303  0.40768271     0.10000
C1555       C  0.43802946  0.23916332  0.39898819    -0.12200
C1556       C  0.43696588  0.21482576  0.39779450    -0.12200
C1557       C  0.45933959  0.21307592  0.40533048     0.10000
C1558       C  0.48277705  0.23598330  0.41412251    -0.12200
H1559       H  0.50217563  0.27773696  0.42200947     0.14000
H1560       H  0.42052322  0.24005085  0.39301335     0.14000
H1561       H  0.41870152  0.19742983  0.39090569     0.14000
H1562       H  0.50032848  0.23513281  0.41997666     0.14000
C1563       C  0.44055150  0.35387566  0.50188512    -0.12200
C1564       C  0.43118967  0.32987153  0.48745244     0.10000
C1565       C  0.41855508  0.30592889  0.50252155    -0.12200
C1566       C  0.41771802  0.30615239  0.53163579    -0.12200
C1567       C  0.42976678  0.33032687  0.54621936     0.10000
C1568       C  0.43994838  0.35411550  0.53101834    -0.12200
H1569       H  0.45046284  0.37264189  0.49085612     0.14000
H1570       H  0.41110870  0.28712646  0.49196771     0.14000
H1571       H  0.40972653  0.28750123  0.54272980     0.14000
H1572       H  0.44942344  0.37306677  0.54163437     0.14000
C1573       C  0.45069772  0.34290169  0.32853748    -0.12100
C1574       C  0.45072562  0.34813355  0.30421575    -0.13600
C1575       C  0.53713951  0.42574531  0.42880975    -0.12200
C1576       C  0.53660658  0.40172134  0.42468519     0.10000
C1577       C  0.56078683  0.40208509  0.42193151    -0.12200
C1578       C  0.58500973  0.42626786  0.42147691    -0.12200
C1579       C  0.58539512  0.45040973  0.42383581     0.10000
C1580       C  0.56132583  0.44988151  0.42844385    -0.12200
H1581       H  0.51875934  0.42596399  0.43129806     0.14000
H1582       H  0.56090025  0.38382393  0.41881230     0.14000
H1583       H  0.60330812  0.42610997  0.41809427     0.14000
H1584       H  0.56106625  0.46816649  0.43063105     0.14000
loop_ 
_geom_bond_atom_site_label_1 
_geom_bond_atom_site_label_2 
_geom_bond_distance 
_geom_bond_site_symmetry_2 
_ccdc_geom_bond_type 
In1           O3   2.230       .  S
In1           O4   2.278       .  S
In1          O12   2.218       .  S
In1           O6   2.222       .  S
In1           O8   2.250       .  S
In1           O9   2.268       .  S
In1          O10   2.220       .  S
In1          O13   2.263       .  S
C2            O8   1.264       .  A
C2           O10   1.261       .  A
C2         C1576   1.474       .  S
O3           C11   1.253       .  A
O4           C11   1.264       .  A
C5           O12   1.266       .  A
C5            O6   1.266       .  A
C5         C1554   1.468       .  S
C7            O9   1.259       .  A
C7           O13   1.256       .  A
C7         C1564   1.483       .  S
C11        C1573   1.438       .  S
In14         O16   2.215       .  S
In14         O17   2.294       .  S
In14         O25   2.239       .  S
In14         O19   2.237       .  S
In14         O21   2.243       .  S
In14         O22   2.278       .  S
In14         O23   2.250       .  S
In14         O26   2.226       .  S
C15          O21   1.261       .  A
C15          O23   1.262       .  A
C15        C1579   1.478       .  S
O16          C24   1.256       .  A
O17          C24   1.265       .  A
C18          O25   1.265       .  A
C18          O19   1.264       .  A
C18        C1532   1.478       .  S
C20          O22   1.264       .  A
C20          O26   1.254       .  A
C20        C1551   1.437       .  S
C24        C1542   1.479       .  S
In27         O29   2.269       .  S
In27         O30   2.267       .  S
In27         O38   2.226       .  S
In27         O32   2.240       .  S
In27         O34   2.232       .  S
In27         O35   2.285       .  S
In27         O36   2.228       .  S
In27         O39   2.225       .  S
C28          O34   1.264       .  A
C28          O36   1.262       .  A
C28        C1522   1.471       .  S
O29          C37   1.258       .  A
O30          C37   1.257       .  A
C31          O38   1.265       .  A
C31          O32   1.266       .  A
C31        C1510   1.476       .  S
C33          O35   1.265       .  A
C33          O39   1.253       .  A
C33        C1520   1.439       .  S
C37        C1567   1.484       .  S
In40         O42   2.222       .  S
In40         O43   2.258       .  S
In40         O51   2.230       .  S
In40         O45   2.220       .  S
In40         O47   2.234       .  S
In40         O48   2.286       .  S
In40         O49   2.237       .  S
In40         O52   2.214       .  S
C41          O47   1.262       .  A
C41          O49   1.261       .  A
C41        C1525   1.472       .  S
O42          C50   1.258       .  A
O43          C50   1.266       .  A
C44          O51   1.265       .  A
C44          O45   1.265       .  A
C44        C1498   1.470       .  S
C46          O48   1.266       .  A
C46          O52   1.257       .  A
C46        C1545   1.476       .  S
C50        C1507   1.435       .  S
In53         O55   2.271       .  S
In53         O56   2.247       .  S
In53         O64   2.223       .  S
In53         O58   2.226       .  S
In53         O60   2.246       .  S
In53         O61   2.270       .  S
In53         O62   2.226       .  S
In53         O65   2.231       .  S
C54          O60   1.262       .  A
C54          O62   1.261       .  A
C54        C1488   1.471       .  S
O55          C63   1.260       .  A
O56          C63   1.256       .  A
C57          O64   1.264       .  A
C57          O58   1.265       .  A
C57        C1469   1.470       .  S
C59          O61   1.264       .  A
C59          O65   1.255       .  A
C59        C1485   1.439       .  S
C63        C1476   1.479       .  S
In66         O68   2.231       .  S
In66         O69   2.273       .  S
In66         O77   2.220       .  S
In66         O71   2.234       .  S
In66         O73   2.236       .  S
In66         O74   2.250       .  S
In66         O75   2.235       .  S
In66         O78   2.272       .  S
C67          O73   1.261       .  A
C67          O75   1.261       .  A
C67        C1454   1.471       .  S
O68          C76   1.255       .  A
O69          C76   1.263       .  A
C70          O77   1.264       .  A
C70          O71   1.265       .  A
C70        C1447   1.471       .  S
C72          O74   1.255       .  A
C72          O78   1.259       .  A
C72        C1479   1.480       .  S
C76        C1464   1.438       .  S
In79         O81   2.219       .  S
In79         O82   2.267       .  S
In79         O90   2.226       .  S
In79         O84   2.231       .  S
In79         O86   2.240       .  S
In79         O87   2.289       .  S
In79         O88   2.229       .  S
In79         O91   2.208       .  S
C80          O86   1.262       .  A
C80          O88   1.260       .  A
C80        C1437   1.471       .  S
O81          C89   1.256       .  A
O82          C89   1.265       .  A
C83          O90   1.266       .  A
C83          O84   1.266       .  A
C83        C1412   1.473       .  S
C85          O87   1.265       .  A
C85          O91   1.256       .  A
C85        C1422   1.478       .  S
C89        C1431   1.435       .  S
In92         O94   2.237       .  S
In92         O95   2.222       .  S
In92        O103   2.267       .  S
In92         O97   2.258       .  S
In92         O99   2.282       .  S
In92        O100   2.238       .  S
In92        O101   2.229       .  S
In92        O104   2.226       .  S
C93          O99   1.264       .  A
C93         O101   1.253       .  A
C93        C1410   1.439       .  S
O94         C102   1.266       .  A
O95         C102   1.265       .  A
C96         O103   1.257       .  A
C96          O97   1.257       .  A
C96        C1400   1.482       .  S
C98         O100   1.263       .  A
C98         O104   1.261       .  A
C98        C1434   1.470       .  S
C102       C1390   1.473       .  S
In105       O107   2.212       .  S
In105       O108   2.282       .  S
In105       O116   2.229       .  S
In105       O110   2.216       .  S
In105       O112   2.241       .  S
In105       O113   2.267       .  S
In105       O114   2.227       .  S
In105       O117   2.228       .  S
C106        O112   1.261       .  A
C106        O114   1.261       .  A
C106       C1380   1.471       .  S
O107        C115   1.258       .  A
O108        C115   1.266       .  A
C109        O116   1.264       .  A
C109        O110   1.263       .  A
C109       C1368   1.467       .  S
C111        O113   1.265       .  A
C111        O117   1.257       .  A
C111       C1377   1.440       .  S
C115       C1425   1.474       .  S
In118       O120   2.220       .  S
In118       O121   2.233       .  S
In118       O129   2.278       .  S
In118       O123   2.250       .  S
In118       O125   2.271       .  S
In118       O126   2.234       .  S
In118       O127   2.232       .  S
In118       O130   2.230       .  S
C119        O125   1.263       .  A
C119        O127   1.254       .  A
C119       C1366   1.436       .  S
O120        C128   1.263       .  A
O121        C128   1.264       .  A
C122        O129   1.259       .  A
C122        O123   1.255       .  A
C122       C1403   1.481       .  S
C124        O126   1.263       .  A
C124        O130   1.264       .  A
C124       C1356   1.472       .  S
C128       C1383   1.468       .  S
In131       O133   2.231       .  S
In131       O134   2.279       .  S
In131       O142   2.226       .  S
In131       O136   2.213       .  S
In131       O138   2.241       .  S
In131       O139   2.273       .  S
In131       O140   2.222       .  S
In131       O143   2.255       .  S
C132        O138   1.261       .  A
C132        O140   1.261       .  A
C132       C1491   1.470       .  S
O133        C141   1.253       .  A
O134        C141   1.263       .  A
C135        O142   1.266       .  A
C135        O136   1.264       .  A
C135       C1371   1.467       .  S
C137        O139   1.259       .  A
C137        O143   1.257       .  A
C137       C1344   1.483       .  S
C141       C1353   1.438       .  S
In144       O146   2.245       .  S
In144       O147   2.286       .  S
In144       O155   2.231       .  S
In144       O149   2.227       .  S
In144       O151   2.241       .  S
In144       O152   2.275       .  S
In144       O153   2.220       .  S
In144       O156   2.224       .  S
C145        O151   1.263       .  A
C145        O153   1.260       .  A
C145       C1457   1.470       .  S
O146        C154   1.256       .  A
O147        C154   1.261       .  A
C148        O155   1.266       .  A
C148        O149   1.265       .  A
C148       C1415   1.473       .  S
C150        O152   1.265       .  A
C150        O156   1.253       .  A
C150       C1342   1.437       .  S
C154       C1347   1.482       .  S
In157       O159   2.292       .  S
In157       O160   2.210       .  S
In157       O168   2.237       .  S
In157       O162   2.217       .  S
In157       O164   2.234       .  S
In157       O165   2.265       .  S
In157       O166   2.231       .  S
In157       O169   2.224       .  S
C158        O164   1.262       .  A
C158        O166   1.262       .  A
C158       C1332   1.471       .  S
O159        C167   1.266       .  A
O160        C167   1.256       .  A
C161        O168   1.265       .  A
C161        O162   1.264       .  A
C161       C1444   1.471       .  S
C163        O165   1.266       .  A
C163        O169   1.257       .  A
C163       C1329   1.438       .  S
C167       C1320   1.476       .  S
In170       O172   2.234       .  S
In170       O173   2.283       .  S
In170       O181   2.229       .  S
In170       O175   2.216       .  S
In170       O177   2.249       .  S
In170       O178   2.275       .  S
In170       O179   2.229       .  S
In170       O182   2.267       .  S
C171        O177   1.262       .  A
C171        O179   1.261       .  A
C171       C1335   1.473       .  S
O172        C180   1.253       .  A
O173        C180   1.265       .  A
C174        O181   1.266       .  A
C174        O175   1.265       .  A
C174       C1393   1.471       .  S
C176        O178   1.259       .  A
C176        O182   1.256       .  A
C176       C1308   1.485       .  S
C180       C1317   1.442       .  S
In183       O185   2.226       .  S
In183       O186   2.268       .  S
In183       O194   2.234       .  S
In183       O188   2.219       .  S
In183       O190   2.248       .  S
In183       O191   2.214       .  S
In183       O192   2.229       .  S
In183       O195   2.286       .  S
C184        O190   1.262       .  A
C184        O192   1.261       .  A
C184       C1298   1.473       .  S
O185        C193   1.257       .  A
O186        C193   1.265       .  A
C187        O194   1.265       .  A
C187        O188   1.264       .  A
C187       C1466   1.471       .  S
C189        O191   1.256       .  A
C189        O195   1.265       .  A
C189       C1323   1.476       .  S
C193       C1295   1.438       .  S
In196       O198   2.269       .  S
In196       O199   2.266       .  S
In196       O207   2.225       .  S
In196       O201   2.227       .  S
In196       O203   2.250       .  S
In196       O204   2.280       .  S
In196       O205   2.223       .  S
In196       O208   2.226       .  S
C197        O203   1.263       .  A
C197        O205   1.262       .  A
C197       C1301   1.474       .  S
O198        C206   1.257       .  A
O199        C206   1.258       .  A
C200        O207   1.265       .  A
C200        O201   1.264       .  A
C200       C1359   1.471       .  S
C202        O204   1.263       .  A
C202        O208   1.252       .  A
C202       C1294   1.436       .  S
C206       C1311   1.484       .  S
In209       O211   2.256       .  S
In209       O212   2.224       .  S
In209       O220   2.258       .  S
In209       O214   2.279       .  S
In209       O216   2.293       .  S
In209       O217   2.238       .  S
In209       O218   2.242       .  S
In209       O221   2.264       .  S
C210        O216   1.263       .  A
C210        O218   1.255       .  A
C210       C1288   1.448       .  S
O211        C219   1.260       .  A
O212        C219   1.257       .  A
C213        O220   1.257       .  A
C213        O214   1.262       .  A
C213       C1291   1.447       .  S
C215        O217   1.256       .  A
C215        O221   1.263       .  A
C215       C1285   1.439       .  S
C219       C1289   1.428       .  S
In222       O224   2.264       .  S
In222       O225   2.237       .  S
In222       O233   2.239       .  S
In222       O227   2.281       .  S
In222       O229   2.287       .  S
In222       O230   2.220       .  S
In222       O231   2.250       .  S
In222       O234   2.252       .  S
C223        O229   1.262       .  A
C223        O231   1.257       .  A
C223       C1281   1.449       .  S
O224        C232   1.264       .  A
O225        C232   1.256       .  A
C226        O233   1.254       .  A
C226        O227   1.263       .  A
C226       C1283   1.442       .  S
C228        O230   1.257       .  A
C228        O234   1.260       .  A
C228       C1290   1.427       .  S
C232       C1409   1.439       .  S
In235       O237   2.260       .  S
In235       O238   2.258       .  S
In235       O246   2.237       .  S
In235       O240   2.289       .  S
In235       O242   2.311       .  S
In235       O243   2.252       .  S
In235       O244   2.231       .  S
In235       O247   2.242       .  S
C236        O242   1.268       .  A
C236        O244   1.257       .  A
C236       C1277   1.488       .  S
O237        C245   1.263       .  A
O238        C245   1.261       .  A
C239        O246   1.261       .  A
C239        O240   1.267       .  A
C239       C1269   1.493       .  S
C241        O243   1.263       .  A
C241        O247   1.261       .  A
C241       C1273   1.475       .  S
C245       C1292   1.447       .  S
In248       O250   2.253       .  S
In248       O251   2.252       .  S
In248       O259   2.264       .  S
In248       O253   2.288       .  S
In248       O255   2.296       .  S
In248       O256   2.249       .  S
In248       O257   2.254       .  S
In248       O260   2.269       .  S
C249        O255   1.264       .  A
C249        O257   1.259       .  A
C249       C1278   1.495   1_565  S
O250        C258   1.262       .  A
O251        C258   1.260       .  A
C252        O259   1.261       .  A
C252        O253   1.263       .  A
C252       C1262   1.496       .  S
C254        O256   1.257       .  A
C254        O260   1.261       .  A
C254       C1284   1.442       .  S
C258       C1265   1.477       .  S
In261       O263   2.256       .  S
In261       O264   2.252       .  S
In261       O272   2.238       .  S
In261       O266   2.302       .  S
In261       O268   2.308       .  S
In261       O269   2.252       .  S
In261       O270   2.240       .  S
In261       O273   2.271       .  S
C262        O268   1.265       .  A
C262        O270   1.258       .  A
C262       C1257   1.489       .  S
O263        C271   1.261       .  A
O264        C271   1.259       .  A
C265        O272   1.258       .  A
C265        O266   1.264       .  A
C265       C1252   1.494       .  S
C267        O269   1.258       .  A
C267        O273   1.263       .  A
C267       C1256   1.446       .  S
C271       C1274   1.476   1_556  S
In274       O276   2.249       .  S
In274       O277   2.244       .  S
In274       O285   2.229       .  S
In274       O279   2.319       .  S
In274       O281   2.300       .  S
In274       O282   2.246       .  S
In274       O283   2.238       .  S
In274       O286   2.241       .  S
C275        O281   1.270       .  A
C275        O283   1.260       .  A
C275       C1258   1.497   1_565  S
O276        C284   1.264       .  A
O277        C284   1.262       .  A
C278        O285   1.259       .  A
C278        O279   1.271       .  A
C278       C1246   1.494       .  S
C280        O282   1.264       .  A
C280        O286   1.263       .  A
C280       C1266   1.476   1_556  S
C284       C1249   1.440       .  S
In287       O289   2.264       .  S
In287       O290   2.244       .  S
In287       O298   2.247       .  S
In287       O292   2.281       .  S
In287       O294   2.293       .  S
In287       O295   2.214       .  S
In287       O296   2.250       .  S
In287       O299   2.250       .  S
C288        O294   1.264       .  A
C288        O296   1.256       .  A
C288       C1241   1.451       .  S
O289        C297   1.263       .  A
O290        C297   1.256       .  A
C291        O298   1.256       .  A
C291        O292   1.264       .  A
C291       C1255   1.446       .  S
C293        O295   1.258       .  A
C293        O299   1.260       .  A
C293       C1243   1.424       .  S
C297       C1240   1.439       .  S
In300       O302   2.242       .  S
In300       O303   2.213       .  S
In300       O311   2.232       .  S
In300       O305   2.276       .  S
In300       O307   2.277       .  S
In300       O308   2.243       .  S
In300       O309   2.237       .  S
In300       O312   2.257       .  S
C301        O307   1.263       .  A
C301        O309   1.257       .  A
C301       C1237   1.443       .  S
O302        C310   1.261       .  A
O303        C310   1.260       .  A
C304        O311   1.254       .  A
C304        O305   1.263       .  A
C304       C1250   1.439       .  S
C306        O308   1.256       .  A
C306        O312   1.261       .  A
C306       C1365   1.436       .  S
C310       C1244   1.424       .  S
In313       O315   2.252       .  S
In313       O316   2.252       .  S
In313       O324   2.225       .  S
In313       O318   2.304       .  S
In313       O320   2.296       .  S
In313       O321   2.255       .  S
In313       O322   2.239       .  S
In313       O325   2.255       .  S
C314        O320   1.268       .  A
C314        O322   1.261       .  A
C314       C1233   1.495       .  S
O315        C323   1.262       .  A
O316        C323   1.263       .  A
C317        O324   1.258       .  A
C317        O318   1.269       .  A
C317       C1223   1.487       .  S
C319        O321   1.262       .  A
C319        O325   1.263       .  A
C319       C1231   1.446       .  S
C323       C1227   1.478       .  S
In326       O328   2.262       .  S
In326       O329   2.255       .  S
In326       O337   2.240       .  S
In326       O331   2.291       .  S
In326       O333   2.312       .  S
In326       O334   2.253       .  S
In326       O335   2.224       .  S
In326       O338   2.249       .  S
C327        O333   1.268       .  A
C327        O335   1.257       .  A
C327       C1234   1.486       .  S
O328        C336   1.264       .  A
O329        C336   1.261       .  A
C330        O337   1.261       .  A
C330        O331   1.267       .  A
C330       C1214   1.495       .  S
C332        O334   1.262       .  A
C332        O338   1.260       .  A
C332       C1217   1.477       .  S
C336       C1221   1.447       .  S
In339       O341   2.249       .  S
In339       O342   2.220       .  S
In339       O350   2.250       .  S
In339       O344   2.283       .  S
In339       O346   2.294       .  S
In339       O347   2.236       .  S
In339       O348   2.239       .  S
In339       O351   2.264       .  S
C340        O346   1.265       .  A
C340        O348   1.256       .  A
C340       C1282   1.449       .  S
O341        C349   1.261       .  A
O342        C349   1.259       .  A
C343        O350   1.256       .  A
C343        O344   1.263       .  A
C343       C1222   1.447       .  S
C345        O347   1.255       .  A
C345        O351   1.262       .  A
C345       C1432   1.436       .  S
C349       C1212   1.429       .  S
In352       O354   2.275       .  S
In352       O355   2.243       .  S
In352       O363   2.246       .  S
In352       O357   2.286       .  S
In352       O359   2.291       .  S
In352       O360   2.219       .  S
In352       O361   2.257       .  S
In352       O364   2.263       .  S
C353        O359   1.261       .  A
C353        O361   1.256       .  A
C353       C1287   1.449       .  S
O354        C362   1.263       .  A
O355        C362   1.255       .  A
C356        O363   1.256       .  A
C356        O357   1.263       .  A
C356       C1232   1.446       .  S
C358        O360   1.256       .  A
C358        O364   1.261       .  A
C358       C1211   1.430       .  S
C362       C1209   1.443       .  S
In365       O367   2.253       .  S
In365       O368   2.238       .  S
In365       O376   2.223       .  S
In365       O370   2.314       .  S
In365       O372   2.307       .  S
In365       O373   2.247       .  S
In365       O374   2.226       .  S
In365       O377   2.265       .  S
C366        O372   1.270       .  A
C366        O374   1.258       .  A
C366       C1205   1.487       .  S
O367        C375   1.264       .  A
O368        C375   1.261       .  A
C369        O376   1.257       .  A
C369        O370   1.269       .  A
C369       C1199   1.488       .  S
C371        O373   1.260       .  A
C371        O377   1.264       .  A
C371       C1203   1.444       .  S
C375       C1218   1.475   1_556  S
In378       O380   2.274       .  S
In378       O381   2.260       .  S
In378       O389   2.248       .  S
In378       O383   2.296       .  S
In378       O385   2.292       .  S
In378       O386   2.246       .  S
In378       O387   2.252       .  S
In378       O390   2.255       .  S
C379        O385   1.264       .  A
C379        O387   1.260       .  A
C379       C1206   1.493       .  S
O380        C388   1.262       .  A
O381        C388   1.258       .  A
C382        O389   1.260       .  A
C382        O383   1.264       .  A
C382       C1194   1.495       .  S
C384        O386   1.260       .  A
C384        O390   1.262       .  A
C384       C1228   1.476   1_556  S
C388       C1198   1.448       .  S
In391       O393   2.264       .  S
In391       O394   2.244       .  S
In391       O402   2.247       .  S
In391       O396   2.274       .  S
In391       O398   2.280       .  S
In391       O399   2.216       .  S
In391       O400   2.240       .  S
In391       O403   2.258       .  S
C392        O398   1.263       .  A
C392        O400   1.257       .  A
C392       C1238   1.443       .  S
O393        C401   1.263       .  A
O394        C401   1.257       .  A
C395        O402   1.256       .  A
C395        O396   1.262       .  A
C395       C1204   1.443       .  S
C397        O399   1.257       .  A
C397        O403   1.260       .  A
C397       C1191   1.427       .  S
C401       C1378   1.440       .  S
In404       O406   2.246       .  S
In404       O407   2.219       .  S
In404       O415   2.242       .  S
In404       O409   2.289       .  S
In404       O411   2.289       .  S
In404       O412   2.244       .  S
In404       O413   2.249       .  S
In404       O416   2.264       .  S
C405        O411   1.264       .  A
C405        O413   1.257       .  A
C405       C1242   1.451       .  S
O406        C414   1.261       .  A
O407        C414   1.260       .  A
C408        O415   1.254       .  A
C408        O409   1.264       .  A
C408       C1197   1.446       .  S
C410        O412   1.256       .  A
C410        O416   1.263       .  A
C410       C1189   1.440       .  S
C414       C1192   1.427       .  S
In417       O419   2.245       .  S
In417       O420   2.245       .  S
In417       O428   2.209       .  S
In417       O422   2.297       .  S
In417       O424   2.312       .  S
In417       O425   2.250       .  S
In417       O426   2.207       .  S
In417       O429   2.254       .  S
C418        O424   1.271       .  A
C418        O426   1.258       .  A
C418       C1185   1.485       .  S
O419        C427   1.262       .  A
O420        C427   1.264       .  A
C421        O428   1.258       .  A
C421        O422   1.270       .  A
C421       C1175   1.479       .  S
C423        O425   1.263       .  A
C423        O429   1.265       .  A
C423       C1184   1.444       .  S
C427       C1180   1.477       .  S
In430       O432   2.263       .  S
In430       O433   2.250       .  S
In430       O441   2.261       .  S
In430       O435   2.291       .  S
In430       O437   2.305       .  S
In430       O438   2.248       .  S
In430       O439   2.247       .  S
In430       O442   2.262       .  S
C431        O437   1.263       .  A
C431        O439   1.259       .  A
C431       C1186   1.496       .  S
O432        C440   1.261       .  A
O433        C440   1.257       .  A
C434        O441   1.260       .  A
C434        O435   1.263       .  A
C434       C1224   1.494       .  S
C436        O438   1.258       .  A
C436        O442   1.262       .  A
C436       C1169   1.476       .  S
C440       C1173   1.441       .  S
In443       O445   2.251       .  S
In443       O446   2.272       .  S
In443       O454   2.261       .  S
In443       O448   2.245       .  S
In443       O450   2.219       .  S
In443       O451   2.242       .  S
In443       O452   2.256       .  S
In443       O455   2.280       .  S
C444        O450   1.257       .  A
C444        O452   1.261       .  A
C444       C1167   1.427       .  S
O445        C453   1.256       .  A
O446        C453   1.260       .  A
C447        O454   1.262       .  A
C447        O448   1.256       .  A
C447       C1330   1.438       .  S
C449        O451   1.256       .  A
C449        O455   1.262       .  A
C449       C1165   1.444       .  S
C453       C1183   1.443       .  S
In456       O458   2.239       .  S
In456       O459   2.286       .  S
In456       O467   2.263       .  S
In456       O461   2.235       .  S
In456       O463   2.221       .  S
In456       O464   2.272       .  S
In456       O465   2.250       .  S
In456       O468   2.240       .  S
C457        O463   1.258       .  A
C457        O465   1.259       .  A
C457       C1168   1.427       .  S
O458        C466   1.256       .  A
O459        C466   1.264       .  A
C460        O467   1.263       .  A
C460        O461   1.256       .  A
C460       C1574   1.438       .  S
C462        O464   1.264       .  A
C462        O468   1.257       .  A
C462       C1174   1.441       .  S
C466       C1163   1.447       .  S
In469       O471   2.242       .  S
In469       O472   2.291       .  S
In469       O480   2.261       .  S
In469       O474   2.241       .  S
In469       O476   2.217       .  S
In469       O477   2.285       .  S
In469       O478   2.252       .  S
In469       O481   2.246       .  S
C470        O476   1.258       .  A
C470        O478   1.260       .  A
C470       C1160   1.427       .  S
O471        C479   1.257       .  A
O472        C479   1.265       .  A
C473        O480   1.263       .  A
C473        O474   1.257       .  A
C473       C1296   1.439       .  S
C475        O477   1.264       .  A
C475        O481   1.256       .  A
C475       C1161   1.448       .  S
C479       C1157   1.448       .  S
In482       O484   2.237       .  S
In482       O485   2.281       .  S
In482       O493   2.270       .  S
In482       O487   2.230       .  S
In482       O489   2.223       .  S
In482       O490   2.279       .  S
In482       O491   2.256       .  S
In482       O494   2.250       .  S
C483        O489   1.256       .  A
C483        O491   1.259       .  A
C483       C1159   1.427       .  S
O484        C492   1.255       .  A
O485        C492   1.263       .  A
C486        O493   1.266       .  A
C486        O487   1.256       .  A
C486       C1519   1.440       .  S
C488        O490   1.260       .  A
C488        O494   1.256       .  A
C488       C1153   1.445       .  S
C492       C1155   1.442       .  S
In495       O497   2.272       .  S
In495       O498   2.244       .  S
In495       O506   2.237       .  S
In495       O500   2.320       .  S
In495       O502   2.328       .  S
In495       O503   2.238       .  S
In495       O504   2.218       .  S
In495       O507   2.266       .  S
C496        O502   1.269       .  A
C496        O504   1.256       .  A
C496       C1150   1.489       .  S
O497        C505   1.266       .  A
O498        C505   1.259       .  A
C499        O506   1.257       .  A
C499        O500   1.269       .  A
C499       C1146   1.493       .  S
C501        O503   1.258       .  A
C501        O507   1.263       .  A
C501       C1179   1.475   1_556  S
C505       C1162   1.448       .  S
In508       O510   2.243       .  S
In508       O511   2.247       .  S
In508       O519   2.221       .  S
In508       O513   2.317       .  S
In508       O515   2.306       .  S
In508       O516   2.251       .  S
In508       O517   2.231       .  S
In508       O520   2.253       .  S
C509        O515   1.270       .  A
C509        O517   1.260       .  A
C509       C1149   1.499       .  S
O510        C518   1.261       .  A
O511        C518   1.263       .  A
C512        O519   1.257       .  A
C512        O513   1.270       .  A
C512       C1193   1.488       .  S
C514        O516   1.262       .  A
C514        O520   1.264       .  A
C514       C1156   1.443       .  S
C518       C1170   1.475   1_556  S
In521       O523   2.254       .  S
In521       O524   2.247       .  S
In521       O532   2.245       .  S
In521       O526   2.275       .  S
In521       O528   2.290       .  S
In521       O529   2.211       .  S
In521       O530   2.248       .  S
In521       O533   2.248       .  S
C522        O528   1.263       .  A
C522        O530   1.256       .  A
C522       C1139   1.450       .  S
O523        C531   1.262       .  A
O524        C531   1.257       .  A
C525        O532   1.256       .  A
C525        O526   1.263       .  A
C525       C1143   1.442       .  S
C527        O529   1.259       .  A
C527        O533   1.261       .  A
C527       C1141   1.424       .  S
C531       C1137   1.438       .  S
In534       O536   2.250       .  S
In534       O537   2.214       .  S
In534       O545   2.246       .  S
In534       O539   2.275       .  S
In534       O541   2.273       .  S
In534       O542   2.239       .  S
In534       O543   2.240       .  S
In534       O546   2.262       .  S
C535        O541   1.264       .  A
C535        O543   1.258       .  A
C535       C1134   1.443       .  S
O536        C544   1.259       .  A
O537        C544   1.258       .  A
C538        O545   1.256       .  A
C538        O539   1.262       .  A
C538       C1135   1.444       .  S
C540        O542   1.257       .  A
C540        O546   1.263       .  A
C540       C1463   1.438       .  S
C544       C1142   1.424       .  S
In547       O549   2.251       .  S
In547       O550   2.262       .  S
In547       O558   2.237       .  S
In547       O552   2.287       .  S
In547       O554   2.276       .  S
In547       O555   2.261       .  S
In547       O556   2.241       .  S
In547       O559   2.248       .  S
C548        O554   1.265       .  A
C548        O556   1.263       .  A
C548       C1129   1.491       .  S
O549        C557   1.261       .  A
O550        C557   1.262       .  A
C551        O558   1.260       .  A
C551        O552   1.263       .  A
C551       C1176   1.488       .  S
C553        O555   1.263       .  A
C553        O559   1.259       .  A
C553       C1126   1.478       .  S
C557       C1136   1.444       .  S
In560       O562   2.257       .  S
In560       O563   2.239       .  S
In560       O571   2.223       .  S
In560       O565   2.312       .  S
In560       O567   2.313       .  S
In560       O568   2.235       .  S
In560       O569   2.217       .  S
In560       O572   2.263       .  S
C561        O567   1.270       .  A
C561        O569   1.256       .  A
C561       C1130   1.484       .  S
O562        C570   1.262       .  A
O563        C570   1.259       .  A
C564        O571   1.257       .  A
C564        O565   1.269       .  A
C564       C1270   1.486       .  S
C566        O568   1.260       .  A
C566        O572   1.266       .  A
C566       C1144   1.443       .  S
C570       C1122   1.474       .  S
In573       O575   2.243       .  S
In573       O576   2.213       .  S
In573       O584   2.243       .  S
In573       O578   2.272       .  S
In573       O580   2.289       .  S
In573       O581   2.229       .  S
In573       O582   2.244       .  S
In573       O585   2.257       .  S
C574        O580   1.263       .  A
C574        O582   1.256       .  A
C574       C1115   1.449       .  S
O575        C583   1.261       .  A
O576        C583   1.258       .  A
C577        O584   1.255       .  A
C577        O578   1.262       .  A
C577       C1119   1.441       .  S
C579        O581   1.256       .  A
C579        O585   1.263       .  A
C579       C1113   1.432       .  S
C583       C1117   1.423       .  S
In586       O588   2.266       .  S
In586       O589   2.240       .  S
In586       O597   2.254       .  S
In586       O591   2.284       .  S
In586       O593   2.294       .  S
In586       O594   2.218       .  S
In586       O595   2.243       .  S
In586       O598   2.248       .  S
C587        O593   1.265       .  A
C587        O595   1.256       .  A
C587       C1110   1.451       .  S
O588        C596   1.263       .  A
O589        C596   1.256       .  A
C590        O597   1.256       .  A
C590        O591   1.264       .  A
C590       C1111   1.448       .  S
C592        O594   1.258       .  A
C592        O598   1.260       .  A
C592       C1118   1.424       .  S
C596       C1486   1.439       .  S
In599       O601   2.262       .  S
In599       O602   2.251       .  S
In599       O610   2.268       .  S
In599       O604   2.299       .  S
In599       O606   2.300       .  S
In599       O607   2.251       .  S
In599       O608   2.253       .  S
In599       O611   2.271       .  S
C600        O606   1.265       .  A
C600        O608   1.260       .  A
C600       C1106   1.497       .  S
O601        C609   1.261       .  A
O602        C609   1.259       .  A
C603        O610   1.260       .  A
C603        O604   1.264       .  A
C603       C1145   1.499       .  S
C605        O607   1.259       .  A
C605        O611   1.264       .  A
C605       C1112   1.448       .  S
C609       C1125   1.478   1_556  S
In612       O614   2.252       .  S
In612       O615   2.243       .  S
In612       O623   2.213       .  S
In612       O617   2.315       .  S
In612       O619   2.306       .  S
In612       O620   2.245       .  S
In612       O621   2.217       .  S
In612       O624   2.244       .  S
C613        O619   1.272       .  A
C613        O621   1.259       .  A
C613       C1105   1.488       .  S
O614        C622   1.265       .  A
O615        C622   1.262       .  A
C616        O623   1.257       .  A
C616        O617   1.271       .  A
C616       C1251   1.485       .  S
C618        O620   1.263       .  A
C618        O624   1.262       .  A
C618       C1121   1.475   1_556  S
C622       C1120   1.442       .  S
In625       O627   2.247       .  S
In625       O628   2.246       .  S
In625       O636   2.235       .  S
In625       O630   2.318       .  S
In625       O632   2.325       .  S
In625       O633   2.243       .  S
In625       O634   2.228       .  S
In625       O637   2.268       .  S
C626        O632   1.270       .  A
C626        O634   1.258       .  A
C626       C1101   1.494       .  S
O627        C635   1.262       .  A
O628        C635   1.259       .  A
C629        O636   1.256       .  A
C629        O630   1.268       .  A
C629       C1091   1.491       .  S
C631        O633   1.259       .  A
C631        O637   1.266       .  A
C631       C1099   1.445       .  S
C635       C1096   1.472       .  S
In638       O640   2.260       .  S
In638       O641   2.251       .  S
In638       O649   2.231       .  S
In638       O643   2.311       .  S
In638       O645   2.308       .  S
In638       O646   2.256       .  S
In638       O647   2.245       .  S
In638       O650   2.248       .  S
C639        O645   1.270       .  A
C639        O647   1.261       .  A
C639       C1102   1.503       .  S
O640        C648   1.265       .  A
O641        C648   1.263       .  A
C642        O649   1.258       .  A
C642        O643   1.271       .  A
C642       C1261   1.491       .  S
C644        O646   1.264       .  A
C644        O650   1.261       .  A
C644       C1085   1.480       .  S
C648       C1090   1.447       .  S
In651       O653   2.243       .  S
In651       O654   2.280       .  S
In651       O662   2.262       .  S
In651       O656   2.237       .  S
In651       O658   2.213       .  S
In651       O659   2.292       .  S
In651       O660   2.260       .  S
In651       O663   2.244       .  S
C652        O658   1.257       .  A
C652        O660   1.262       .  A
C652       C1083   1.429       .  S
O653        C661   1.256       .  A
O654        C661   1.264       .  A
C655        O662   1.262       .  A
C655        O656   1.255       .  A
C655       C1552   1.437       .  S
C657        O659   1.264       .  A
C657        O663   1.256       .  A
C657       C1164   1.448       .  S
C661       C1100   1.445       .  S
In664       O666   2.260       .  S
In664       O667   2.216       .  S
In664       O675   2.237       .  S
In664       O669   2.290       .  S
In664       O671   2.289       .  S
In664       O672   2.237       .  S
In664       O673   2.241       .  S
In664       O676   2.274       .  S
C665        O671   1.263       .  A
C665        O673   1.255       .  A
C665       C1166   1.444       .  S
O666        C674   1.262       .  A
O667        C674   1.258       .  A
C668        O675   1.254       .  A
C668        O669   1.264       .  A
C668       C1089   1.445       .  S
C670        O672   1.255       .  A
C670        O676   1.263       .  A
C670       C1318   1.441       .  S
C674       C1084   1.430       .  S
In677       O679   2.256       .  S
In677       O680   2.245       .  S
In677       O688   2.214       .  S
In677       O682   2.302       .  S
In677       O684   2.300       .  S
In677       O685   2.243       .  S
In677       O686   2.226       .  S
In677       O689   2.239       .  S
C678        O684   1.269       .  A
C678        O686   1.258       .  A
C678       C1079   1.486       .  S
O679        C687   1.265       .  A
O680        C687   1.262       .  A
C681        O688   1.258       .  A
C681        O682   1.270       .  A
C681       C1073   1.482       .  S
C683        O685   1.263       .  A
C683        O689   1.260       .  A
C683       C1095   1.471   1_556  S
C687       C1077   1.444       .  S
In690       O692   2.268       .  S
In690       O693   2.244       .  S
In690       O701   2.261       .  S
In690       O695   2.298       .  S
In690       O697   2.293       .  S
In690       O698   2.245       .  S
In690       O699   2.253       .  S
In690       O702   2.265       .  S
C691        O697   1.264       .  A
C691        O699   1.259       .  A
C691       C1080   1.493       .  S
O692        C700   1.263       .  A
O693        C700   1.259       .  A
C694        O701   1.260       .  A
C694        O695   1.264       .  A
C694       C1245   1.499       .  S
C696        O698   1.257       .  A
C696        O702   1.261       .  A
C696       C1071   1.440       .  S
C700       C1086   1.479       .  S
In703       O705   2.238       .  S
In703       O706   2.288       .  S
In703       O714   2.257       .  S
In703       O708   2.232       .  S
In703       O710   2.219       .  S
In703       O711   2.274       .  S
In703       O712   2.254       .  S
In703       O715   2.246       .  S
C704        O710   1.258       .  A
C704        O712   1.261       .  A
C704       C1070   1.428       .  S
O705        C713   1.255       .  A
O706        C713   1.263       .  A
C707        O714   1.263       .  A
C707        O708   1.257       .  A
C707       C1508   1.435       .  S
C709        O711   1.262       .  A
C709        O715   1.256       .  A
C709       C1078   1.443       .  S
C713       C1154   1.445       .  S
In716       O718   2.261       .  S
In716       O719   2.243       .  S
In716       O727   2.238       .  S
In716       O721   2.276       .  S
In716       O723   2.283       .  S
In716       O724   2.214       .  S
In716       O725   2.243       .  S
In716       O728   2.254       .  S
C717        O723   1.263       .  A
C717        O725   1.257       .  A
C717       C1158   1.448       .  S
O718        C726   1.262       .  A
O719        C726   1.255       .  A
C720        O727   1.255       .  A
C720        O721   1.262       .  A
C720       C1072   1.439       .  S
C722        O724   1.258       .  A
C722        O728   1.261       .  A
C722       C1069   1.427       .  S
C726       C1293   1.437       .  S
In729       O731   2.236       .  S
In729       O732   2.213       .  S
In729       O740   2.241       .  S
In729       O734   2.283       .  S
In729       O736   2.289       .  S
In729       O737   2.237       .  S
In729       O738   2.242       .  S
In729       O741   2.258       .  S
C730        O736   1.265       .  A
C730        O738   1.256       .  A
C730       C1140   1.449       .  S
O731        C739   1.261       .  A
O732        C739   1.261       .  A
C733        O740   1.255       .  A
C733        O734   1.265       .  A
C733       C1068   1.444       .  S
C735        O737   1.257       .  A
C735        O741   1.263       .  A
C735       C1064   1.437       .  S
C739       C1065   1.423       .  S
In742       O744   2.271       .  S
In742       O745   2.236       .  S
In742       O753   2.242       .  S
In742       O747   2.270       .  S
In742       O749   2.282       .  S
In742       O750   2.208       .  S
In742       O751   2.239       .  S
In742       O754   2.251       .  S
C743        O749   1.262       .  A
C743        O751   1.256       .  A
C743       C1133   1.444       .  S
O744        C752   1.262       .  A
O745        C752   1.254       .  A
C746        O753   1.255       .  A
C746        O747   1.261       .  A
C746       C1061   1.438       .  S
C748        O750   1.257       .  A
C748        O754   1.261       .  A
C748       C1066   1.423       .  S
C752       C1341   1.438       .  S
In755       O757   2.251       .  S
In755       O758   2.235       .  S
In755       O766   2.221       .  S
In755       O760   2.316       .  S
In755       O762   2.319       .  S
In755       O763   2.239       .  S
In755       O764   2.229       .  S
In755       O767   2.254       .  S
C756        O762   1.269       .  A
C756        O764   1.257       .  A
C756       C1057   1.490       .  S
O757        C765   1.264       .  A
O758        C765   1.259       .  A
C759        O766   1.256       .  A
C759        O760   1.269       .  A
C759       C1213   1.486       .  S
C761        O763   1.259       .  A
C761        O767   1.263       .  A
C761       C1062   1.438       .  S
C765       C1053   1.472       .  S
In768       O770   2.269       .  S
In768       O771   2.247       .  S
In768       O779   2.252       .  S
In768       O773   2.301       .  S
In768       O775   2.299       .  S
In768       O776   2.249       .  S
In768       O777   2.250       .  S
In768       O780   2.266       .  S
C769        O775   1.266       .  A
C769        O777   1.260       .  A
C769       C1058   1.498       .  S
O770        C778   1.263       .  A
O771        C778   1.259       .  A
C772        O779   1.259       .  A
C772        O773   1.265       .  A
C772       C1092   1.497       .  S
C774        O776   1.260       .  A
C774        O780   1.263       .  A
C774       C1050   1.481       .  S
C778       C1067   1.444       .  S
In781       O783   2.266       .  S
In781       O784   2.238       .  S
In781       O792   2.243       .  S
In781       O786   2.285       .  S
In781       O788   2.287       .  S
In781       O789   2.212       .  S
In781       O790   2.244       .  S
In781       O793   2.254       .  S
C782        O788   1.264       .  A
C782        O790   1.257       .  A
C782       C1116   1.448       .  S
O783        C791   1.264       .  A
O784        C791   1.257       .  A
C785        O792   1.255       .  A
C785        O786   1.265       .  A
C785       C1047   1.447       .  S
C787        O789   1.258       .  A
C787        O793   1.261       .  A
C787       C1045   1.426       .  S
C791       C1043   1.440       .  S
In794       O796   2.252       .  S
In794       O797   2.221       .  S
In794       O805   2.257       .  S
In794       O799   2.285       .  S
In794       O801   2.295       .  S
In794       O802   2.240       .  S
In794       O803   2.247       .  S
In794       O806   2.258       .  S
C795        O801   1.265       .  A
C795        O803   1.257       .  A
C795       C1109   1.452       .  S
O796        C804   1.259       .  A
O797        C804   1.258       .  A
C798        O805   1.255       .  A
C798        O799   1.262       .  A
C798       C1041   1.449       .  S
C800        O802   1.258       .  A
C800        O806   1.264       .  A
C800       C1354   1.439       .  S
C804       C1046   1.426       .  S
In807       O809   2.264       .  S
In807       O810   2.254       .  S
In807       O818   2.240       .  S
In807       O812   2.287       .  S
In807       O814   2.300       .  S
In807       O815   2.248       .  S
In807       O816   2.223       .  S
In807       O819   2.235       .  S
C808        O814   1.269       .  A
C808        O816   1.257       .  A
C808       C1037   1.482       .  S
O809        C817   1.264       .  A
O810        C817   1.261       .  A
C811        O818   1.262       .  A
C811        O812   1.267       .  A
C811       C1200   1.495       .  S
C813        O815   1.265       .  A
C813        O819   1.260       .  A
C813       C1054   1.472   1_556  S
C817       C1042   1.449       .  S
In820       O822   2.254       .  S
In820       O823   2.262       .  S
In820       O831   2.231       .  S
In820       O825   2.291       .  S
In820       O827   2.285       .  S
In820       O828   2.263       .  S
In820       O829   2.235       .  S
In820       O832   2.260       .  S
C821        O827   1.266       .  A
C821        O829   1.261       .  A
C821       C1038   1.489       .  S
O822        C830   1.261       .  A
O823        C830   1.264       .  A
C824        O831   1.261       .  A
C824        O825   1.265       .  A
C824       C1074   1.491       .  S
C826        O828   1.262       .  A
C826        O832   1.261       .  A
C826       C1048   1.448       .  S
C830       C1049   1.482   1_556  S
In833       O835   2.225       .  S
In833       O836   2.277       .  S
In833       O844   2.241       .  S
In833       O838   2.230       .  S
In833       O840   2.234       .  S
In833       O841   2.293       .  S
In833       O842   2.240       .  S
In833       O845   2.245       .  S
C834        O840   1.261       .  A
C834        O842   1.260       .  A
C834       C1028   1.471       .  S
O835        C843   1.253       .  A
O836        C843   1.264       .  A
C837        O844   1.267       .  A
C837        O838   1.264       .  A
C837       C1535   1.478       .  S
C839        O841   1.261       .  A
C839        O845   1.256       .  A
C839       C1018   1.485       .  S
C843       C1063   1.436       .  S
In846       O848   2.238       .  S
In846       O849   2.283       .  S
In846       O857   2.224       .  S
In846       O851   2.223       .  S
In846       O853   2.227       .  S
In846       O854   2.276       .  S
In846       O855   2.226       .  S
In846       O858   2.217       .  S
C847        O853   1.262       .  A
C847        O855   1.262       .  A
C847       C1031   1.469       .  S
O848        C856   1.257       .  A
O849        C856   1.262       .  A
C850        O857   1.265       .  A
C850        O851   1.263       .  A
C850       C1008   1.468       .  S
C852        O854   1.266       .  A
C852        O858   1.254       .  A
C852       C1138   1.436       .  S
C856        C998   1.482       .  S
In859       O861   2.253       .  S
In859       O862   2.282       .  S
In859       O870   2.229       .  S
In859       O864   2.214       .  S
In859       O866   2.227       .  S
In859       O867   2.281       .  S
In859       O868   2.233       .  S
In859       O871   2.221       .  S
C860        O866   1.261       .  A
C860        O868   1.262       .  A
C860        C988   1.468       .  S
O861        C869   1.256       .  A
O862        C869   1.260       .  A
C863        O870   1.266       .  A
C863        O864   1.264       .  A
C863       C1501   1.468       .  S
C865        O867   1.266       .  A
C865        O871   1.253       .  A
C865       C1044   1.438       .  S
C869       C1021   1.487       .  S
In872       O874   2.216       .  S
In872       O875   2.261       .  S
In872       O883   2.234       .  S
In872       O877   2.217       .  S
In872       O879   2.228       .  S
In872       O880   2.281       .  S
In872       O881   2.233       .  S
In872       O884   2.213       .  S
C873        O879   1.261       .  A
C873        O881   1.261       .  A
C873        C991   1.468       .  S
O874        C882   1.256       .  A
O875        C882   1.264       .  A
C876        O883   1.265       .  A
C876        O877   1.263       .  A
C876        C981   1.469       .  S
C878        O880   1.264       .  A
C878        O884   1.256       .  A
C878       C1001   1.474       .  S
C882       C1114   1.431       .  S
In885       O887   2.216       .  S
In885       O888   2.279       .  S
In885       O896   2.227       .  S
In885       O890   2.215       .  S
In885       O892   2.237       .  S
In885       O893   2.271       .  S
In885       O894   2.233       .  S
In885       O897   2.216       .  S
C886        O892   1.262       .  A
C886        O894   1.262       .  A
C886        C968   1.473       .  S
O887        C895   1.258       .  A
O888        C895   1.267       .  A
C889        O896   1.265       .  A
C889        O890   1.264       .  A
C889        C978   1.468       .  S
C891        O893   1.267       .  A
C891        O897   1.256       .  A
C891       C1239   1.437       .  S
C895        C958   1.478       .  S
In898       O900   2.229       .  S
In898       O901   2.268       .  S
In898       O909   2.217       .  S
In898       O903   2.218       .  S
In898       O905   2.239       .  S
In898       O906   2.289       .  S
In898       O907   2.221       .  S
In898       O910   2.216       .  S
C899        O905   1.261       .  A
C899        O907   1.261       .  A
C899        C951   1.469       .  S
O900        C908   1.257       .  A
O901        C908   1.266       .  A
C902        O909   1.265       .  A
C902        O903   1.264       .  A
C902       C1011   1.467       .  S
C904        O906   1.266       .  A
C904        O910   1.257       .  A
C904        C961   1.479       .  S
C908       C1286   1.439       .  S
In911       O913   2.276       .  S
In911       O914   2.251       .  S
In911       O922   2.233       .  S
In911       O916   2.219       .  S
In911       O918   2.234       .  S
In911       O919   2.284       .  S
In911       O920   2.219       .  S
In911       O923   2.235       .  S
C912        O918   1.262       .  A
C912        O920   1.263       .  A
C912        C948   1.468       .  S
O913        C921   1.259       .  A
O914        C921   1.256       .  A
C915        O922   1.264       .  A
C915        O916   1.261       .  A
C915       C1557   1.468       .  S
C917        O919   1.264       .  A
C917        O923   1.253       .  A
C917       C1210   1.442       .  S
C921        C938   1.481       .  S
In924       O926   2.227       .  S
In924       O927   2.286       .  S
In924       O935   2.235       .  S
In924       O929   2.241       .  S
In924       O931   2.240       .  S
In924       O932   2.267       .  S
In924       O933   2.225       .  S
In924       O936   2.269       .  S
C925        O931   1.265       .  A
C925        O933   1.262       .  A
C925        C971   1.473       .  S
O926        C934   1.251       .  A
O927        C934   1.264       .  A
C928        O935   1.264       .  A
C928        O929   1.264       .  A
C928       C1513   1.477       .  S
C930        O932   1.257       .  A
C930        O936   1.257       .  A
C930        C941   1.483       .  S
C934       C1190   1.438       .  S
C937        C938   1.405       .  A
C937        C942   1.402       .  A
C937        H943   1.083       .  S
C938        C939   1.405       .  A
C939        C940   1.400       .  A
C939        H944   1.083       .  S
C940        C941   1.405       .  A
C940        H945   1.083       .  S
C941        C942   1.407       .  A
C942        H946   1.083       .  S
C947        C948   1.401       .  A
C947        C952   1.391       .  A
C947        H953   1.083       .  S
C948        C949   1.405       .  A
C949        C950   1.398       .  A
C949        H954   1.083       .  S
C950        C951   1.405       .  A
C950        H955   1.083       .  S
C951        C952   1.402       .  A
C952        H956   1.083       .  S
C957        C958   1.406       .  A
C957        C962   1.407       .  A
C957        H963   1.083       .  S
C958        C959   1.403       .  A
C959        C960   1.394       .  A
C959        H964   1.083       .  S
C960        C961   1.404       .  A
C960        H965   1.083       .  S
C961        C962   1.406       .  A
C962        H966   1.083       .  S
C967        C968   1.403       .  A
C967        C972   1.395       .  A
C967        H973   1.083       .  S
C968        C969   1.405       .  A
C969        C970   1.398       .  A
C969        H974   1.083       .  S
C970        C971   1.404       .  A
C970        H975   1.083       .  S
C971        C972   1.404       .  A
C972        H976   1.083       .  S
C977        C978   1.402       .  A
C977        C982   1.393       .  A
C977        H983   1.083       .  S
C978        C979   1.404       .  A
C979        C980   1.396       .  A
C979        H984   1.083       .  S
C980        C981   1.404       .  A
C980        H985   1.083       .  S
C981        C982   1.403       .  A
C982        H986   1.083       .  S
C987        C988   1.403       .  A
C987        C992   1.394       .  A
C987        H993   1.083       .  S
C988        C989   1.403       .  A
C989        C990   1.395       .  A
C989        H994   1.083       .  S
C990        C991   1.403       .  A
C990        H995   1.083       .  S
C991        C992   1.403       .  A
C992        H996   1.083       .  S
C997        C998   1.404       .  A
C997       C1002   1.394       .  A
C997       H1003   1.083       .  S
C998        C999   1.408       .  A
C999       C1000   1.406       .  A
C999       H1004   1.083       .  S
C1000      C1001   1.405       .  A
C1000      H1005   1.083       .  S
C1001      C1002   1.402       .  A
C1002      H1006   1.083       .  S
C1007      C1008   1.404       .  A
C1007      C1012   1.395       .  A
C1007      H1013   1.083       .  S
C1008      C1009   1.402       .  A
C1009      C1010   1.393       .  A
C1009      H1014   1.083       .  S
C1010      C1011   1.402       .  A
C1010      H1015   1.083       .  S
C1011      C1012   1.404       .  A
C1012      H1016   1.083       .  S
C1017      C1018   1.405       .  A
C1017      C1022   1.398       .  A
C1017      H1023   1.083       .  S
C1018      C1019   1.407       .  A
C1019      C1020   1.407       .  A
C1019      H1024   1.083       .  S
C1020      C1021   1.408       .  A
C1020      H1025   1.083       .  S
C1021      C1022   1.405       .  A
C1022      H1026   1.083       .  S
C1027      C1028   1.404       .  A
C1027      C1032   1.396       .  A
C1027      H1033   1.083       .  S
C1028      C1029   1.403       .  A
C1029      C1030   1.394       .  A
C1029      H1034   1.083       .  S
C1030      C1031   1.403       .  A
C1030      H1035   1.083       .  S
C1031      C1032   1.404       .  A
C1032      H1036   1.083       .  S
C1037      C1038   1.347   1_455  D
C1037      H1039   1.088       .  S
C1038      H1040   1.086   1_655  S
C1041      C1042   1.214       .  T
C1043      C1044   1.208       .  T
C1045      C1046   1.200   1_655  T
C1047      C1048   1.213       .  T
C1049      C1050   1.345       .  D
C1049      H1051   1.086       .  S
C1050      H1052   1.085       .  S
C1053      C1054   1.340       .  D
C1053      H1055   1.086       .  S
C1054      H1056   1.086       .  S
C1057      C1058   1.351   1_455  D
C1057      H1059   1.087       .  S
C1058      H1060   1.085   1_655  S
C1061      C1062   1.208       .  T
C1063      C1064   1.207       .  T
C1065      C1066   1.199   1_655  T
C1067      C1068   1.211       .  T
C1069      C1070   1.201       .  T
C1071      C1072   1.208       .  T
C1073      C1074   1.348       .  D
C1073      H1075   1.088       .  S
C1074      H1076   1.087       .  S
C1077      C1078   1.211       .  T
C1079      C1080   1.348       .  D
C1079      H1081   1.088       .  S
C1080      H1082   1.086       .  S
C1083      C1084   1.202       .  T
C1085      C1086   1.344   1_554  D
C1085      H1087   1.086       .  S
C1086      H1088   1.086   1_556  S
C1089      C1090   1.212       .  T
C1091      C1092   1.351       .  D
C1091      H1093   1.087       .  S
C1092      H1094   1.086       .  S
C1095      C1096   1.341       .  D
C1095      H1097   1.086       .  S
C1096      H1098   1.086       .  S
C1099      C1100   1.212       .  T
C1101      C1102   1.354       .  D
C1101      H1103   1.086       .  S
C1102      H1104   1.085       .  S
C1105      C1106   1.350   1_655  D
C1105      H1107   1.087   1_655  S
C1106      H1108   1.086   1_455  S
C1109      C1110   1.216       .  T
C1111      C1112   1.213       .  T
C1113      C1114   1.204       .  T
C1115      C1116   1.214       .  T
C1117      C1118   1.199   1_655  T
C1119      C1120   1.209       .  T
C1121      C1122   1.343       .  D
C1121      H1123   1.085       .  S
C1122      H1124   1.085       .  S
C1125      C1126   1.343       .  D
C1125      H1127   1.085       .  S
C1126      H1128   1.086       .  S
C1129      C1130   1.346   1_455  D
C1129      H1131   1.086   1_455  S
C1130      H1132   1.087   1_655  S
C1133      C1134   1.211       .  T
C1135      C1136   1.211       .  T
C1137      C1138   1.207       .  T
C1139      C1140   1.214       .  T
C1141      C1142   1.199   1_655  T
C1143      C1144   1.210       .  T
C1145      C1146   1.351       .  D
C1145      H1147   1.086       .  S
C1146      H1148   1.087       .  S
C1149      C1150   1.352       .  D
C1149      H1151   1.085       .  S
C1150      H1152   1.086       .  S
C1153      C1154   1.212       .  T
C1155      C1156   1.210       .  T
C1157      C1158   1.214       .  T
C1159      C1160   1.201       .  T
C1161      C1162   1.213       .  T
C1163      C1164   1.213       .  T
C1165      C1166   1.211       .  T
C1167      C1168   1.201       .  T
C1169      C1170   1.342       .  D
C1169      H1171   1.086       .  S
C1170      H1172   1.085       .  S
C1173      C1174   1.209       .  T
C1175      C1176   1.345       .  D
C1175      H1177   1.088       .  S
C1176      H1178   1.086       .  S
C1179      C1180   1.342       .  D
C1179      H1181   1.086       .  S
C1180      H1182   1.086       .  S
C1183      C1184   1.211       .  T
C1185      C1186   1.349       .  D
C1185      H1187   1.087       .  S
C1186      H1188   1.086       .  S
C1189      C1190   1.208       .  T
C1191      C1192   1.201   1_565  T
C1193      C1194   1.349       .  D
C1193      H1195   1.087       .  S
C1194      H1196   1.086       .  S
C1197      C1198   1.213       .  T
C1199      C1200   1.349       .  D
C1199      H1201   1.087       .  S
C1200      H1202   1.086       .  S
C1203      C1204   1.211       .  T
C1205      C1206   1.348   1_565  D
C1205      H1207   1.087   1_565  S
C1206      H1208   1.086   1_545  S
C1209      C1210   1.210       .  T
C1211      C1212   1.202   1_545  T
C1213      C1214   1.349       .  D
C1213      H1215   1.087       .  S
C1214      H1216   1.085       .  S
C1217      C1218   1.343       .  D
C1217      H1219   1.085       .  S
C1218      H1220   1.085       .  S
C1221      C1222   1.213       .  T
C1223      C1224   1.348       .  D
C1223      H1225   1.088       .  S
C1224      H1226   1.087       .  S
C1227      C1228   1.344       .  D
C1227      H1229   1.085       .  S
C1228      H1230   1.085       .  S
C1231      C1232   1.212       .  T
C1233      C1234   1.350   1_545  D
C1233      H1235   1.086       .  S
C1234      H1236   1.087   1_565  S
C1237      C1238   1.210       .  T
C1239      C1240   1.208       .  T
C1241      C1242   1.215       .  T
C1243      C1244   1.199   1_545  T
C1245      C1246   1.351       .  D
C1245      H1247   1.086       .  S
C1246      H1248   1.088       .  S
C1249      C1250   1.208       .  T
C1251      C1252   1.349       .  D
C1251      H1253   1.087       .  S
C1252      H1254   1.086       .  S
C1255      C1256   1.212       .  T
C1257      C1258   1.353       .  D
C1257      H1259   1.087       .  S
C1258      H1260   1.086       .  S
C1261      C1262   1.349       .  D
C1261      H1263   1.088       .  S
C1262      H1264   1.087       .  S
C1265      C1266   1.344       .  D
C1265      H1267   1.085       .  S
C1266      H1268   1.085       .  S
C1269      C1270   1.348       .  D
C1269      H1271   1.086       .  S
C1270      H1272   1.087       .  S
C1273      C1274   1.343       .  D
C1273      H1275   1.085       .  S
C1274      H1276   1.085       .  S
C1277      C1278   1.350       .  D
C1277      H1279   1.088       .  S
C1278      H1280   1.087       .  S
C1281      C1282   1.214       .  T
C1283      C1284   1.210       .  T
C1285      C1286   1.208       .  T
C1287      C1288   1.214       .  T
C1289      C1290   1.201   1_545  T
C1291      C1292   1.213       .  T
C1293      C1294   1.207       .  T
C1295      C1296   1.208       .  T
C1297      C1298   1.405       .  A
C1297      C1302   1.401       .  A
C1297      H1303   1.083       .  S
C1298      C1299   1.402       .  A
C1299      C1300   1.393       .  A
C1299      H1304   1.083       .  S
C1300      C1301   1.403       .  A
C1300      H1305   1.083       .  S
C1301      C1302   1.405       .  A
C1302      H1306   1.083       .  S
C1307      C1308   1.407       .  A
C1307      C1312   1.403       .  A
C1307      H1313   1.083       .  S
C1308      C1309   1.405       .  A
C1309      C1310   1.401       .  A
C1309      H1314   1.083       .  S
C1310      C1311   1.405       .  A
C1310      H1315   1.083       .  S
C1311      C1312   1.406       .  A
C1312      H1316   1.083       .  S
C1317      C1318   1.210       .  T
C1319      C1320   1.403       .  A
C1319      C1324   1.392       .  A
C1319      H1325   1.084       .  S
C1320      C1321   1.406       .  A
C1321      C1322   1.408       .  A
C1321      H1326   1.083       .  S
C1322      C1323   1.407       .  A
C1322      H1327   1.083       .  S
C1323      C1324   1.402       .  A
C1324      H1328   1.084       .  S
C1329      C1330   1.207       .  T
C1331      C1332   1.405       .  A
C1331      C1336   1.398       .  A
C1331      H1337   1.083       .  S
C1332      C1333   1.402       .  A
C1333      C1334   1.394       .  A
C1333      H1338   1.083       .  S
C1334      C1335   1.403       .  A
C1334      H1339   1.083       .  S
C1335      C1336   1.405       .  A
C1336      H1340   1.083       .  S
C1341      C1342   1.207       .  T
C1343      C1344   1.405       .  A
C1343      C1348   1.398       .  A
C1343      H1349   1.083       .  S
C1344      C1345   1.407       .  A
C1345      C1346   1.404       .  A
C1345      H1350   1.083       .  S
C1346      C1347   1.405       .  A
C1346      H1351   1.083       .  S
C1347      C1348   1.405       .  A
C1348      H1352   1.083       .  S
C1353      C1354   1.208       .  T
C1355      C1356   1.404       .  A
C1355      C1360   1.397       .  A
C1355      H1361   1.083       .  S
C1356      C1357   1.403       .  A
C1357      C1358   1.394       .  A
C1357      H1362   1.083       .  S
C1358      C1359   1.403       .  A
C1358      H1363   1.083       .  S
C1359      C1360   1.404       .  A
C1360      H1364   1.083       .  S
C1365      C1366   1.206       .  T
C1367      C1368   1.403       .  A
C1367      C1372   1.395       .  A
C1367      H1373   1.083       .  S
C1368      C1369   1.403       .  A
C1369      C1370   1.392       .  A
C1369      H1374   1.083       .  S
C1370      C1371   1.403       .  A
C1370      H1375   1.083       .  S
C1371      C1372   1.403       .  A
C1372      H1376   1.083       .  S
C1377      C1378   1.209       .  T
C1379      C1380   1.403       .  A
C1379      C1384   1.394       .  A
C1379      H1385   1.083       .  S
C1380      C1381   1.404       .  A
C1381      C1382   1.397       .  A
C1381      H1386   1.082       .  S
C1382      C1383   1.403       .  A
C1382      H1387   1.083       .  S
C1383      C1384   1.403       .  A
C1384      H1388   1.083       .  S
C1389      C1390   1.403       .  A
C1389      C1394   1.394       .  A
C1389      H1395   1.083       .  S
C1390      C1391   1.405       .  A
C1391      C1392   1.398       .  A
C1391      H1396   1.083       .  S
C1392      C1393   1.404       .  A
C1392      H1397   1.083       .  S
C1393      C1394   1.403       .  A
C1394      H1398   1.083       .  S
C1399      C1400   1.405       .  A
C1399      C1404   1.399       .  A
C1399      H1405   1.083       .  S
C1400      C1401   1.406       .  A
C1401      C1402   1.402       .  A
C1401      H1406   1.083       .  S
C1402      C1403   1.405       .  A
C1402      H1407   1.083       .  S
C1403      C1404   1.405       .  A
C1404      H1408   1.083       .  S
C1409      C1410   1.208       .  T
C1411      C1412   1.404       .  A
C1411      C1416   1.396       .  A
C1411      H1417   1.083       .  S
C1412      C1413   1.404       .  A
C1413      C1414   1.397       .  A
C1413      H1418   1.083       .  S
C1414      C1415   1.404       .  A
C1414      H1419   1.083       .  S
C1415      C1416   1.403       .  A
C1416      H1420   1.083       .  S
C1421      C1422   1.404       .  A
C1421      C1426   1.391       .  A
C1421      H1427   1.083       .  S
C1422      C1423   1.407       .  A
C1423      C1424   1.408       .  A
C1423      H1428   1.083       .  S
C1424      C1425   1.406       .  A
C1424      H1429   1.083       .  S
C1425      C1426   1.401       .  A
C1426      H1430   1.083       .  S
C1431      C1432   1.206       .  T
C1433      C1434   1.403       .  A
C1433      C1438   1.396       .  A
C1433      H1439   1.083       .  S
C1434      C1435   1.404       .  A
C1435      C1436   1.395       .  A
C1435      H1440   1.083       .  S
C1436      C1437   1.404       .  A
C1436      H1441   1.083       .  S
C1437      C1438   1.404       .  A
C1438      H1442   1.082       .  S
C1443      C1444   1.404       .  A
C1443      C1448   1.395       .  A
C1443      H1449   1.083       .  S
C1444      C1445   1.403       .  A
C1445      C1446   1.396       .  A
C1445      H1450   1.083       .  S
C1446      C1447   1.405       .  A
C1446      H1451   1.083       .  S
C1447      C1448   1.403       .  A
C1448      H1452   1.083       .  S
C1453      C1454   1.403       .  A
C1453      C1458   1.394       .  A
C1453      H1459   1.083       .  S
C1454      C1455   1.404       .  A
C1455      C1456   1.396       .  A
C1455      H1460   1.083       .  S
C1456      C1457   1.403       .  A
C1456      H1461   1.083       .  S
C1457      C1458   1.404       .  A
C1458      H1462   1.083       .  S
C1463      C1464   1.207       .  T
C1465      C1466   1.404       .  A
C1465      C1470   1.394       .  A
C1465      H1471   1.083       .  S
C1466      C1467   1.403       .  A
C1467      C1468   1.396       .  A
C1467      H1472   1.083       .  S
C1468      C1469   1.404       .  A
C1468      H1473   1.083       .  S
C1469      C1470   1.402       .  A
C1470      H1474   1.083       .  S
C1475      C1476   1.405       .  A
C1475      C1480   1.398       .  A
C1475      H1481   1.083       .  S
C1476      C1477   1.405       .  A
C1477      C1478   1.401       .  A
C1477      H1482   1.083       .  S
C1478      C1479   1.405       .  A
C1478      H1483   1.083       .  S
C1479      C1480   1.406       .  A
C1480      H1484   1.083       .  S
C1485      C1486   1.208       .  T
C1487      C1488   1.404       .  A
C1487      C1492   1.398       .  A
C1487      H1493   1.083       .  S
C1488      C1489   1.403       .  A
C1489      C1490   1.393       .  A
C1489      H1494   1.083       .  S
C1490      C1491   1.402       .  A
C1490      H1495   1.083       .  S
C1491      C1492   1.404       .  A
C1492      H1496   1.083       .  S
C1497      C1498   1.404       .  A
C1497      C1502   1.396       .  A
C1497      H1503   1.083       .  S
C1498      C1499   1.403       .  A
C1499      C1500   1.393       .  A
C1499      H1504   1.083       .  S
C1500      C1501   1.403       .  A
C1500      H1505   1.083       .  S
C1501      C1502   1.403       .  A
C1502      H1506   1.083       .  S
C1507      C1508   1.206       .  T
C1509      C1510   1.404       .  A
C1509      C1514   1.396       .  A
C1509      H1515   1.083       .  S
C1510      C1511   1.405       .  A
C1511      C1512   1.400       .  A
C1511      H1516   1.083       .  S
C1512      C1513   1.405       .  A
C1512      H1517   1.083       .  S
C1513      C1514   1.404       .  A
C1514      H1518   1.083       .  S
C1519      C1520   1.208       .  T
C1521      C1522   1.404       .  A
C1521      C1526   1.397       .  A
C1521      H1527   1.083       .  S
C1522      C1523   1.402       .  A
C1523      C1524   1.395       .  A
C1523      H1528   1.083       .  S
C1524      C1525   1.403       .  A
C1524      H1529   1.083       .  S
C1525      C1526   1.404       .  A
C1526      H1530   1.083       .  S
C1531      C1532   1.405       .  A
C1531      C1536   1.399       .  A
C1531      H1537   1.083       .  S
C1532      C1533   1.405       .  A
C1533      C1534   1.398       .  A
C1533      H1538   1.083       .  S
C1534      C1535   1.405       .  A
C1534      H1539   1.083       .  S
C1535      C1536   1.404       .  A
C1536      H1540   1.083       .  S
C1541      C1542   1.407       .  A
C1541      C1546   1.408       .  A
C1541      H1547   1.083       .  S
C1542      C1543   1.404       .  A
C1543      C1544   1.393       .  A
C1543      H1548   1.083       .  S
C1544      C1545   1.402       .  A
C1544      H1549   1.083       .  S
C1545      C1546   1.406       .  A
C1546      H1550   1.083       .  S
C1551      C1552   1.207       .  T
C1553      C1554   1.403       .  A
C1553      C1558   1.394       .  A
C1553      H1559   1.083       .  S
C1554      C1555   1.404       .  A
C1555      C1556   1.395       .  A
C1555      H1560   1.083       .  S
C1556      C1557   1.402       .  A
C1556      H1561   1.083       .  S
C1557      C1558   1.404       .  A
C1558      H1562   1.083       .  S
C1563      C1564   1.405       .  A
C1563      C1568   1.402       .  A
C1563      H1569   1.083       .  S
C1564      C1565   1.406       .  A
C1565      C1566   1.401       .  A
C1565      H1570   1.083       .  S
C1566      C1567   1.406       .  A
C1566      H1571   1.083       .  S
C1567      C1568   1.407       .  A
C1568      H1572   1.083       .  S
C1573      C1574   1.207       .  T
C1575      C1576   1.405       .  A
C1575      C1580   1.397       .  A
C1575      H1581   1.083       .  S
C1576      C1577   1.403       .  A
C1577      C1578   1.399       .  A
C1577      H1582   1.083       .  S
C1578      C1579   1.406       .  A
C1578      H1583   1.082       .  S
C1579      C1580   1.404       .  A
C1580      H1584   1.083       .  S
