geometry optimzed in LAMMPS
_audit_creation_date              2020-11-30 
_audit_creation_method            'lammps2cif' 
_symmetry_space_group_name_H-M    'P1' 
_symmetry_Int_Tables_number       1 
_symmetry_cell_setting            triclinic 
loop_ 
_symmetry_equiv_pos_as_xyz 
  x,y,z 
_cell_length_a                    34.86391798 
_cell_length_b                    36.044175945115235 
_cell_length_c                    39.56624090389095 
_cell_angle_alpha                 88.40591279619862 
_cell_angle_beta                  91.42235902771776 
_cell_angle_gamma                 118.90440506169465 
loop_ 
_atom_site_label 
_atom_site_type_symbol 
_atom_site_fract_x 
_atom_site_fract_y 
_atom_site_fract_z 
_atom_site_charge 
C1          C  0.96544119  0.87379478  0.52244229     0.05500
C2          C  0.95152488  0.89542456  0.49940240     0.05500
C3          C  0.98080943  0.91664616  0.96721626    -0.15000
C4          C  0.02717243  0.93890955  0.97203981     0.05500
C5          C  0.04338986  0.91739606  0.99426611     0.05500
C6          C  0.00912542  0.88219220  0.52173339    -0.15000
H7          H  0.01919049  0.86301896  0.53725983     0.07500
H8          H  0.96532936  0.92668775  0.94790366     0.07500
In9        In  0.65867003  0.51539043  0.19513010     1.36900
C10         C  0.70113775  0.47414767  0.21456159     0.80800
O11         O  0.59791951  0.45565095  0.18049645    -0.57600
O12         O  0.65475462  0.47748815  0.15024654    -0.48500
C13         C  0.62758716  0.53509298  0.24892994     0.73500
O14         O  0.66821421  0.55231234  0.24309830    -0.43400
C15         C  0.68402962  0.58280807  0.15358682     0.78200
O16         O  0.66558552  0.46674035  0.22768008    -0.55300
O17         O  0.64433457  0.55513461  0.15705386    -0.45300
O18         O  0.71951015  0.50813721  0.19728013    -0.51700
C19         C  0.61778112  0.44750206  0.15806567     0.88400
O20         O  0.60349054  0.50836712  0.22735148    -0.53600
O21         O  0.71058767  0.57669344  0.17213108    -0.56900
In22       In  0.77567636  0.72174219  0.52882505     1.36900
C23         C  0.86291852  0.76443387  0.04158042     0.80800
O24         O  0.80045940  0.77365549  0.49051688    -0.57600
O25         O  0.78364795  0.78827935  0.04624866    -0.48500
C26         C  0.72104721  0.67997685  0.47875085     0.73500
O27         O  0.75995470  0.68576599  0.48041113    -0.43400
C28         C  0.75099013  0.66811104  0.08666890     0.78200
O29         O  0.84522349  0.73773528  0.52044866    -0.55300
O30         O  0.74027759  0.69717281  0.08469282    -0.45300
O31         O  0.83888830  0.76408416  0.06514808    -0.51700
C32         C  0.79663960  0.79927693  0.50936351     0.88400
O33         O  0.70967846  0.69379725  0.50355152    -0.53600
O34         O  0.77521095  0.66863587  0.06317752    -0.56900
In35       In  0.56529302  0.61159270  0.36739445     1.36900
C36         C  0.53116218  0.66109126  0.35234651     0.80800
O37         O  0.50171581  0.56236883  0.34574879    -0.57600
O38         O  0.50345366  0.57903467  0.39727110    -0.48500
C39         C  0.60648262  0.59217230  0.32113048     0.73500
O40         O  0.61494874  0.62983451  0.32647351    -0.43400
C41         C  0.61949423  0.62949043  0.42059128     0.78200
O42         O  0.54455435  0.64656504  0.32956618    -0.55300
O43         O  0.58513298  0.59408715  0.41757335    -0.45300
O44         O  0.54560358  0.65989717  0.38161555    -0.51700
C45         C  0.48080016  0.56363617  0.37083817     0.88400
O46         O  0.57751579  0.56433648  0.34011189    -0.53600
O47         O  0.62633080  0.65535534  0.39627285    -0.56900
C48         C  0.68323922  0.35916927  0.15702299     0.05500
C49         C  0.71732100  0.37982294  0.18094986     0.05500
C50         C  0.75648162  0.37795271  0.17709138    -0.15000
C51         C  0.75851314  0.35041277  0.15315424     0.05500
C52         C  0.72137716  0.32636285  0.13225485     0.05500
C53         C  0.69431062  0.34546922  0.12771473    -0.15000
H54         H  0.67043605  0.33567783  0.10740935     0.07500
H55         H  0.78534582  0.39844709  0.19185532     0.07500
C56         C  0.63771068  0.32899843  0.16827354     0.05500
C57         C  0.60116290  0.33046049  0.15335470     0.05500
C58         C  0.56299998  0.29241574  0.14605710    -0.15000
C59         C  0.56356960  0.25369768  0.14839601     0.05500
C60         C  0.60125461  0.25280928  0.16137629     0.05500
C61         C  0.63205600  0.28897481  0.17886355    -0.15000
H62         H  0.66032430  0.28796714  0.18994194     0.07500
H63         H  0.53390075  0.29316060  0.13663139     0.07500
C64         C  0.69753961  0.27747126  0.13200598     0.05500
C65         C  0.70873140  0.25122097  0.15343993     0.05500
C66         C  0.67513859  0.21201153  0.16561306    -0.15000
C67         C  0.63108935  0.20175899  0.16156481     0.05500
C68         C  0.62086047  0.22983638  0.14320248     0.05500
C69         C  0.65318852  0.25680165  0.12026036    -0.15000
H70         H  0.64238872  0.27126745  0.10079274     0.07500
H71         H  0.68321494  0.18961065  0.17842005     0.07500
C72         C  0.89871602  0.92095353  0.00253411     0.05500
C73         C  0.93911209  0.92336498  0.01222612     0.05500
C74         C  0.97309741  0.96356740  0.02152310    -0.15000
C75         C  0.97562882  0.99965417  0.00466296     0.05500
C76         C  0.93613163  0.99718948  0.99214956     0.05500
C77         C  0.89712564  0.95832300  0.99399820    -0.15000
H78         H  0.86618404  0.95672212  0.98670341     0.07500
H79         H  0.00363193  0.96534331  0.03040304     0.07500
In80       In  0.43827161  0.05508667  0.15087115     1.36900
C81         C  0.46405585  0.13532676  0.14055344     0.80800
O82         O  0.49448501  0.08564724  0.18613435    -0.57600
O83         O  0.50603281  0.06854929  0.13728218    -0.48500
C84         C  0.40586493  0.99074160  0.19466029     0.73500
O85         O  0.40564058  0.02523800  0.19990251    -0.43400
C86         C  0.37606150  0.02434989  0.10418812     0.78200
O87         O  0.44086379  0.11570972  0.16605962    -0.55300
O88         O  0.41314089  0.02656469  0.10004324    -0.45300
O89         O  0.46726605  0.11262404  0.11830141    -0.51700
C90         C  0.52185984  0.08962168  0.16414340     0.88400
O91         O  0.42307718  0.98954314  0.16714298    -0.53600
O92         O  0.37095424  0.03726177  0.13228917    -0.56900
In93       In  0.33306656  0.85970723  0.32111276     1.36900
C94         C  0.28166146  0.78127602  0.33827211     0.80800
O95         O  0.35400821  0.82320342  0.28943890    -0.57600
O96         O  0.38862020  0.84780205  0.33637416    -0.48500
C97         C  0.36718351  0.92218057  0.27589467     0.73500
O98         O  0.33172290  0.88821302  0.27009267    -0.43400
C99         C  0.30251281  0.89551861  0.36195362     0.78200
O100        O  0.27499569  0.79660007  0.31069037    -0.55300
O101        O  0.33729077  0.89347989  0.36873405    -0.45300
O102        O  0.30869604  0.80763750  0.35892464    -0.51700
C103        C  0.38057336  0.82297704  0.31168640     0.88400
O104        O  0.38507835  0.92349091  0.30444064    -0.53600
O105        O  0.28343435  0.87899198  0.33432228    -0.56900
In106      In  0.24956420  0.98515528  0.97401626     1.36900
C107        C  0.16883127  0.93765890  0.99307332     0.80800
O108        O  0.23572333  0.03870447  0.98196101    -0.57600
O109        O  0.21505709  0.00312630  0.44694409    -0.48500
C110        C  0.31228032  0.00945468  0.02100870     0.73500
O111        O  0.27833160  0.97342681  0.02193521    -0.43400
C112        C  0.27243609  0.93559864  0.44042551     0.78200
O113        O  0.19766574  0.96294956  0.01320519    -0.55300
O114        O  0.27428947  0.97097392  0.43355810    -0.45300
O115        O  0.17525372  0.92450783  0.46645029    -0.51700
C116        C  0.20959376  0.02801628  0.95702286     0.88400
O117        O  0.31375785  0.03308346  0.99630193    -0.53600
O118        O  0.25528882  0.91893613  0.46846231    -0.56900
In119      In  0.91513670  0.31555677  0.15538871     1.36900
C120        C  0.83155609  0.26605413  0.16438439     0.80800
O121        O  0.89803101  0.36577390  0.16733058    -0.57600
O122        O  0.88719993  0.34342423  0.11687980    -0.48500
C123        C  0.97172499  0.34375401  0.20663297     0.73500
O124        O  0.94377889  0.30488563  0.20393856    -0.43400
C125        C  0.95487605  0.29082189  0.11204213     0.78200
O126        O  0.85698981  0.28249592  0.18934908    -0.55300
O127        O  0.96228733  0.32880216  0.11299168    -0.45300
O128        O  0.84980505  0.26573709  0.13743796    -0.51700
C129        C  0.87782534  0.36144039  0.13967299     0.88400
O130        O  0.97126153  0.36753064  0.18271720    -0.53600
O131        O  0.92798607  0.26606411  0.13370670    -0.56900
In132      In  0.10513650  0.39271415  0.33259913     1.36900
C133        C  0.18480969  0.43306040  0.30722635     0.80800
O134        O  0.10326170  0.45410014  0.33386072    -0.57600
O135        O  0.13911810  0.44130322  0.37242951    -0.48500
C136        C  0.04600398  0.35658616  0.28349340     0.73500
O137        O  0.07579984  0.34697283  0.28997091    -0.43400
C138        C  0.07791949  0.33206559  0.38073516     0.78200
O139        O  0.15248388  0.43267449  0.29208864    -0.55300
O140        O  0.06101165  0.35607448  0.37652252    -0.45300
O141        O  0.17528138  0.40660641  0.33134903    -0.51700
C142        C  0.13194375  0.46841330  0.35706962     0.88400
O143        O  0.04577078  0.38395155  0.30266574    -0.53600
O144        O  0.10774899  0.33878594  0.36011702    -0.56900
In145      In  0.99937588  0.18885502  0.00211395     1.36900
C146        C  0.04621988  0.15375757  0.02571488     0.80800
O147        O  0.93709240  0.12707963  0.99841717    -0.57600
O148        O  0.98290724  0.14125243  0.46023862    -0.48500
C149        C  0.97345687  0.21953745  0.05181491     0.73500
O150        O  0.01322618  0.23638621  0.04330859    -0.43400
C151        C  0.01653693  0.25009594  0.45182515     0.78200
O152        O  0.01453034  0.15161969  0.04180210    -0.55300
O153        O  0.97748987  0.22236296  0.45777737    -0.45300
O154        O  0.05508709  0.18054527  0.49938849    -0.51700
C155        C  0.95270733  0.11320996  0.97676615     0.88400
O156        O  0.94778057  0.18733280  0.03523020    -0.53600
O157        O  0.04487503  0.24717202  0.47061106    -0.56900
C158        C  0.05101282  0.98717305  0.96466101     0.05500
C159        C  0.09166111  0.01540365  0.98029436     0.05500
C160        C  0.09400372  0.04818964  0.00063942    -0.15000
C161        C  0.05618385  0.05178852  0.00611838     0.05500
C162        C  0.01805993  0.02630647  0.98708471     0.05500
C163        C  0.02343376  0.00562859  0.95942769    -0.15000
H164        H  0.99613130  0.99164458  0.94193835     0.07500
H165        H  0.12526602  0.07159316  0.01101333     0.07500
C166        C  0.30576243  0.66367217  0.32996167     0.05500
C167        C  0.26799172  0.66394511  0.34195331     0.05500
C168        C  0.22965829  0.62530135  0.34784501    -0.15000
C169        C  0.23032199  0.58681417  0.34535138     0.05500
C170        C  0.26732597  0.58688483  0.33138818     0.05500
C171        C  0.29964181  0.62518592  0.31685313    -0.15000
H172        H  0.32818095  0.62513285  0.30655183     0.07500
H173        H  0.20043542  0.62533564  0.35657829     0.07500
C174        C  0.38267758  0.64649773  0.36515529     0.05500
C175        C  0.41936317  0.67109847  0.34375536     0.05500
C176        C  0.42189254  0.70705623  0.32629606    -0.15000
C177        C  0.38642073  0.71546896  0.32646324     0.05500
C178        C  0.35000122  0.68964718  0.34652046     0.05500
C179        C  0.35802248  0.66714843  0.37283286    -0.15000
H180        H  0.33380404  0.65475397  0.39239858     0.07500
H181        H  0.45150608  0.72867018  0.31298208     0.07500
C182        C  0.35875879  0.59760632  0.36800380     0.05500
C183        C  0.37079183  0.57197677  0.34896392     0.05500
C184        C  0.33896810  0.54049008  0.32785338    -0.15000
C185        C  0.29673548  0.53624342  0.32442652     0.05500
C186        C  0.28499559  0.55939641  0.34602594     0.05500
C187        C  0.31304743  0.57794475  0.37391070    -0.15000
H188        H  0.30055142  0.58966460  0.39319002     0.07500
H189        H  0.34651392  0.51850925  0.31522074     0.07500
C190        C  0.05974025  0.08884534  0.02243013    -0.10000
C191        C  0.05862045  0.12100430  0.02870784    -0.11600
C192        C  0.26216135  0.49959821  0.30799232    -0.10000
C193        C  0.22872466  0.46705681  0.30247109    -0.11600
C194        C  0.16151326  0.51295503  0.36024916    -0.10000
C195        C  0.19252949  0.54775815  0.35580733    -0.11600
C196        C  0.06551804  0.29926565  0.40797314    -0.13200
C197        C  0.02773006  0.28327079  0.42500916    -0.28400
H198        H  0.08793698  0.28689909  0.41349521     0.15800
H199        H  0.00361707  0.29309486  0.41802599     0.16400
C200        C  0.00209782  0.36108439  0.23575900    -0.13200
C201        C  0.01434413  0.33753642  0.25535442    -0.28400
H202        H  0.01625180  0.39479600  0.24038394     0.15800
H203        H  0.00347499  0.30473615  0.24915506     0.16400
C204        C  0.97539647  0.27630502  0.08703636    -0.13200
C205        C  0.95708508  0.23519468  0.07900414    -0.28400
H206        H  0.00386965  0.29977492  0.07343853     0.15800
H207        H  0.92662865  0.21245771  0.09085431     0.16400
C208        C  0.16904087  0.02920679  0.95878646    -0.10000
C209        C  0.13270815  0.02164547  0.96700160    -0.11600
C210        C  0.39321255  0.79037962  0.31186104    -0.10000
C211        C  0.39264592  0.75666830  0.31560260    -0.11600
C212        C  0.26647330  0.70303669  0.34465073    -0.10000
C213        C  0.26744587  0.73697600  0.34319559    -0.11600
C214        C  0.28548966  0.91628475  0.38422993    -0.13200
C215        C  0.28968802  0.91524169  0.41799431    -0.27500
H216        H  0.26734102  0.93094594  0.37278339     0.15800
H217        H  0.30402095  0.89701618  0.42957222     0.16400
C218        C  0.38663403  0.95393723  0.21838470    -0.13200
C219        C  0.38616019  0.95865180  0.25189458    -0.28400
H220        H  0.37427468  0.92242318  0.20825150     0.15800
H221        H  0.40227715  0.99029561  0.26228260     0.16400
C222        C  0.34801742  0.02317961  0.04645910    -0.13200
C223        C  0.34086213  0.00797714  0.07834884    -0.28400
H224        H  0.38038041  0.04815995  0.03941070     0.15800
H225        H  0.30772641  0.98618812  0.08639916     0.16400
C226        C  0.93495644  0.03448255  0.97928711    -0.10000
C227        C  0.93798416  0.06884629  0.97365926    -0.11600
C228        C  0.56621628  0.12322388  0.16689065    -0.10000
C229        C  0.59744533  0.15841579  0.16685801    -0.11600
C230        C  0.78707545  0.25817603  0.16388856    -0.10000
C231        C  0.75264787  0.25813616  0.15937382    -0.11600
C232        C  0.49218747  0.18027873  0.13954518    -0.10000
C233        C  0.52394751  0.21490337  0.14140120    -0.11600
C234        C  0.80150374  0.35799872  0.14352566    -0.10000
C235        C  0.83841641  0.36484015  0.13825583    -0.11600
C236        C  0.43797373  0.55984187  0.36650079    -0.10000
C237        C  0.40774514  0.56629156  0.35924001    -0.11600
C238        C  0.49436417  0.66860184  0.34697270    -0.10000
C239        C  0.45912331  0.66765207  0.34505890    -0.11600
C240        C  0.85857263  0.88125982  0.00473186    -0.10000
C241        C  0.82304141  0.84419416  0.50327467    -0.11600
C242        C  0.69216415  0.66133787  0.44888303    -0.13200
C243        C  0.64821557  0.64072763  0.45100406    -0.28400
H244        H  0.70738959  0.66621441  0.42435332     0.15800
H245        H  0.63287894  0.63285489  0.47563436     0.16400
C246        C  0.60154161  0.37033815  0.14747407    -0.10000
C247        C  0.60447906  0.40507795  0.14792702    -0.11600
C248        C  0.71378460  0.44160609  0.21263703    -0.10000
C249        C  0.71680929  0.41195031  0.20192785    -0.11600
C250        C  0.69807854  0.61882114  0.12909222    -0.13200
C251        C  0.73739445  0.63575095  0.11421743    -0.28400
H252        H  0.67454583  0.62894607  0.12095232     0.15800
H253        H  0.75898019  0.62254183  0.12022030     0.16400
C254        C  0.60867789  0.54452587  0.27849395    -0.13200
C255        C  0.62849702  0.58196309  0.29416987    -0.28400
H256        H  0.57579023  0.52105647  0.28587662     0.15800
H257        H  0.65977962  0.60686574  0.28506830     0.16400
C258        C  0.08798286  0.92498318  0.99466969    -0.10000
C259        C  0.12371845  0.92723916  0.99574361    -0.11600
C260        C  0.90688976  0.79889607  0.03818272    -0.10000
C261        C  0.93774007  0.83288685  0.03084550    -0.11600
C262        C  0.96954689  0.87281449  0.01593089     0.05500
C263        C  0.95490877  0.89619301  0.99562445     0.05500
C264        C  0.97874318  0.91435547  0.47134289    -0.15000
C265        C  0.02490234  0.93614109  0.47716524     0.05500
C266        C  0.03971644  0.91490830  0.50075161     0.05500
C267        C  0.01355094  0.88238795  0.01396609    -0.15000
H268        H  0.02468131  0.86315488  0.02822727     0.07500
H269        H  0.96440061  0.92396834  0.45081712     0.07500
In270      In  0.65664855  0.51635702  0.69039251     1.36900
C271        C  0.69986419  0.47636702  0.71074583     0.80800
O272        O  0.59757140  0.45380869  0.67857350    -0.57600
O273        O  0.65067537  0.47923384  0.64430245    -0.48500
C274        C  0.62659404  0.53766980  0.74373020     0.73500
O275        O  0.66720596  0.55313827  0.73845949    -0.43400
C276        C  0.68219063  0.58331547  0.64862172     0.78200
O277        O  0.66467190  0.46949834  0.72417175    -0.55300
O278        O  0.64229527  0.55761388  0.65406362    -0.45300
O279        O  0.71761832  0.50939980  0.69229747    -0.51700
C280        C  0.61633493  0.44736491  0.65432245     0.88400
O281        O  0.60195919  0.51217622  0.72159383    -0.53600
O282        O  0.70891734  0.57560722  0.66547797    -0.56900
In283      In  0.77759072  0.72468883  0.03621190     1.36900
C284        C  0.85880770  0.76491919  0.54383448     0.80800
O285        O  0.79970161  0.77542084  0.99720732    -0.57600
O286        O  0.77482399  0.78325535  0.53623990    -0.48500
C287        C  0.71295145  0.68729766  0.99204808     0.73500
O288        O  0.74562158  0.68065964  0.99249573    -0.43400
C289        C  0.74744763  0.66459115  0.57876443     0.78200
O290        O  0.84349914  0.73799022  0.01812594    -0.55300
O291        O  0.73384582  0.69142364  0.57480846    -0.45300
O292        O  0.82982103  0.76399903  0.56292179    -0.51700
C293        C  0.80087004  0.80246623  0.01742792     0.88400
O294        O  0.71302806  0.71116487  0.01489239    -0.53600
O295        O  0.77473856  0.66710188  0.55708557    -0.56900
In296      In  0.57210184  0.60619067  0.87248942     1.36900
C297        C  0.53617215  0.65354789  0.85565289     0.80800
O298        O  0.50572155  0.55011465  0.86465667    -0.57600
O299        O  0.51810102  0.58488039  0.90993146    -0.48500
C300        C  0.60964340  0.59131957  0.82057434     0.73500
O301        O  0.62034984  0.62842715  0.82986754    -0.43400
C302        C  0.63140770  0.62401388  0.92174308     0.78200
O303        O  0.53944609  0.62966021  0.83464118    -0.55300
O304        O  0.60522153  0.58621108  0.91354978    -0.45300
O305        O  0.55994493  0.66075637  0.88180145    -0.51700
C306        C  0.49028303  0.56084486  0.88870111     0.88400
O307        O  0.58034809  0.56197415  0.83824994    -0.53600
O308        O  0.62721675  0.65195422  0.90459197    -0.56900
C309        C  0.68596634  0.35777250  0.65925077     0.05500
C310        C  0.71767422  0.37964525  0.68451412     0.05500
C311        C  0.75582256  0.37541177  0.68617091    -0.15000
C312        C  0.75901641  0.34484997  0.66642690     0.05500
C313        C  0.72437091  0.32039132  0.64341789     0.05500
C314        C  0.69912659  0.34030352  0.63352967    -0.15000
H315        H  0.67752202  0.32937348  0.61180002     0.07500
H316        H  0.78301952  0.39607120  0.70233387     0.07500
C317        C  0.63890956  0.33002775  0.66852438     0.05500
C318        C  0.60458227  0.33169926  0.64984207     0.05500
C319        C  0.56727958  0.29366147  0.64078267    -0.15000
C320        C  0.56674628  0.25466852  0.64610483     0.05500
C321        C  0.60155970  0.25354630  0.66429925     0.05500
C322        C  0.63063409  0.29025392  0.68193977    -0.15000
H323        H  0.65691118  0.28907774  0.69639068     0.07500
H324        H  0.53969307  0.29454308  0.62827222     0.07500
C325        C  0.70002256  0.27139722  0.64375141     0.05500
C326        C  0.70805034  0.24569565  0.66814418     0.05500
C327        C  0.67208180  0.20963769  0.68243464    -0.15000
C328        C  0.62903488  0.20175499  0.67590315     0.05500
C329        C  0.62205457  0.22796540  0.65246610     0.05500
C330        C  0.65667668  0.25123126  0.63003009    -0.15000
H331        H  0.64862219  0.26453711  0.60802894     0.07500
H332        H  0.67753114  0.18753242  0.69829269     0.07500
C333        C  0.89416889  0.91962645  0.49915335     0.05500
C334        C  0.93360290  0.92269021  0.51246947     0.05500
C335        C  0.96661402  0.96325041  0.52198891    -0.15000
C336        C  0.97083962  0.99876539  0.50316324     0.05500
C337        C  0.93247381  0.99606162  0.48782910     0.05500
C338        C  0.89340861  0.95686778  0.48825865    -0.15000
H339        H  0.86317305  0.95500638  0.47858819     0.07500
H340        H  0.99629167  0.96535691  0.53326307     0.07500
In341      In  0.43521874  0.05788591  0.65739874     1.36900
C342        C  0.46660652  0.13665466  0.63897786     0.80800
O343        O  0.48387231  0.09364774  0.69717771    -0.57600
O344        O  0.50426041  0.07016306  0.65535656    -0.48500
C345        C  0.40193877  0.99166034  0.69880469     0.73500
O346        O  0.39884707  0.02476531  0.70422059    -0.43400
C347        C  0.37359362  0.02828834  0.61050033     0.78200
O348        O  0.43980917  0.12119065  0.66344659    -0.55300
O349        O  0.41044948  0.02979949  0.60648222    -0.45300
O350        O  0.47149375  0.11045249  0.62132463    -0.51700
C351        C  0.51505641  0.09441423  0.68080246     0.88400
O352        O  0.42189836  0.99267419  0.67209011    -0.53600
O353        O  0.36862199  0.04159231  0.63855275    -0.56900
In354      In  0.34411823  0.86151275  0.82621909     1.36900
C355        C  0.29487619  0.78324100  0.84448545     0.80800
O356        O  0.37130997  0.82767747  0.79721956    -0.57600
O357        O  0.40009893  0.85212659  0.84572320    -0.48500
C358        C  0.37061113  0.92260035  0.77973081     0.73500
O359        O  0.33834515  0.88604481  0.77436979    -0.43400
C360        C  0.30788385  0.89269786  0.86625661     0.78200
O361        O  0.28873270  0.79695588  0.81588505    -0.55300
O362        O  0.34782582  0.90173643  0.86969513    -0.45300
O363        O  0.32104150  0.81075818  0.86488359    -0.51700
C364        C  0.39498486  0.82717432  0.82176646     0.88400
O365        O  0.38971510  0.92687185  0.80811788    -0.53600
O366        O  0.28703971  0.86811157  0.84224760    -0.56900
In367      In  0.24284177  0.97183623  0.48227706     1.36900
C368        C  0.16013177  0.92375489  0.49517225     0.80800
O369        O  0.22897618  0.02322600  0.49796721    -0.57600
O370        O  0.21473819  0.00557466  0.93566011    -0.48500
C371        C  0.30862245  0.00243812  0.52675343     0.73500
O372        O  0.27234244  0.96971052  0.53257376    -0.43400
C373        C  0.28545105  0.96006393  0.92777982     0.78200
O374        O  0.18808750  0.93849503  0.51888546    -0.55300
O375        O  0.29529036  0.99849561  0.93081872    -0.45300
O376        O  0.18310253  0.92921428  0.96699157    -0.51700
C377        C  0.20712712  0.02012724  0.47135549     0.88400
O378        O  0.31123210  0.01992669  0.49804043    -0.53600
O379        O  0.25654625  0.93445493  0.94789291    -0.56900
In380      In  0.91172091  0.29818091  0.67079364     1.36900
C381        C  0.82692276  0.24977707  0.67550047     0.80800
O382        O  0.89156915  0.34295931  0.69163483    -0.57600
O383        O  0.89107113  0.33775760  0.63810526    -0.48500
C384        C  0.96839207  0.31516130  0.72220167     0.73500
O385        O  0.94041560  0.27764248  0.71456739    -0.43400
C386        C  0.95062314  0.28018697  0.62133626     0.78200
O387        O  0.85111430  0.25970781  0.70166738    -0.55300
O388        O  0.95960467  0.31781793  0.62770605    -0.45300
O389        O  0.84642780  0.25447640  0.64808309    -0.51700
C390        C  0.87714277  0.34810653  0.66341860     0.88400
O391        O  0.96748288  0.34367094  0.70336995    -0.53600
O392        O  0.92244383  0.25218956  0.64061269    -0.56900
In393      In  0.11153996  0.40019157  0.84324230     1.36900
C394        C  0.19306868  0.43881739  0.82088674     0.80800
O395        O  0.11569099  0.46381183  0.84842831    -0.57600
O396        O  0.14513161  0.44309810  0.88685707    -0.48500
C397        C  0.04932896  0.37353818  0.79499011     0.73500
O398        O  0.07824925  0.36189998  0.79661143    -0.43400
C399        C  0.08161517  0.33472531  0.88672048     0.78200
O400        O  0.16278785  0.44209772  0.80548964    -0.55300
O401        O  0.06833079  0.36177709  0.88673303    -0.45300
O402        O  0.18030230  0.40964489  0.84303244    -0.51700
C403        C  0.14207711  0.47349508  0.87314621     0.88400
O404        O  0.05193163  0.39799543  0.81821541    -0.53600
O405        O  0.10889337  0.34062492  0.86401331    -0.56900
In406      In  0.99535998  0.18953952  0.49979581     1.36900
C407        C  0.04147933  0.15374548  0.52345971     0.80800
O408        O  0.93430948  0.12608308  0.49738184    -0.57600
O409        O  0.98766141  0.14050995  0.96327965    -0.48500
C410        C  0.96813206  0.21853089  0.55031865     0.73500
O411        O  0.00847420  0.23336691  0.54418560    -0.43400
C412        C  0.01895187  0.24849702  0.95406360     0.78200
O413        O  0.01019658  0.15238805  0.53959422    -0.55300
O414        O  0.98003632  0.22062944  0.96026760    -0.45300
O415        O  0.05968848  0.18095980  0.00195795    -0.51700
C416        C  0.94925033  0.11300521  0.47460239     0.88400
O417        O  0.94263995  0.19012130  0.53037206    -0.53600
O418        O  0.04773998  0.24574208  0.97235309    -0.56900
C419        C  0.04948855  0.98440739  0.46992347     0.05500
C420        C  0.08870309  0.01255352  0.48748975     0.05500
C421        C  0.08950143  0.04607546  0.50588016    -0.15000
C422        C  0.05154975  0.05037550  0.50789116     0.05500
C423        C  0.01494892  0.02457739  0.48746629     0.05500
C424        C  0.02255474  0.00294370  0.46163883    -0.15000
H425        H  0.99686602  0.98865401  0.44283161     0.07500
H426        H  0.11979380  0.06940275  0.51761278     0.07500
C427        C  0.31792498  0.66552724  0.84651800     0.05500
C428        C  0.28038594  0.66647062  0.85793602     0.05500
C429        C  0.24259109  0.62828430  0.86609964    -0.15000
C430        C  0.24349922  0.58975336  0.86557166     0.05500
C431        C  0.27971929  0.58887517  0.85109219     0.05500
C432        C  0.31146837  0.62624005  0.83500031    -0.15000
H433        H  0.33958622  0.62558473  0.82449954     0.07500
H434        H  0.21344479  0.62881954  0.87437373     0.07500
C435        C  0.39447937  0.64830319  0.88081693     0.05500
C436        C  0.43013950  0.67241577  0.85838195     0.05500
C437        C  0.43321871  0.70918583  0.84191797    -0.15000
C438        C  0.39834577  0.71835765  0.84313642     0.05500
C439        C  0.36201791  0.69206319  0.86317428     0.05500
C440        C  0.37038189  0.66933425  0.88918228    -0.15000
H441        H  0.34652524  0.65708531  0.90899431     0.07500
H442        H  0.46229427  0.73018313  0.82777063     0.07500
C443        C  0.37159899  0.59954200  0.88577918     0.05500
C444        C  0.38268243  0.57300280  0.86697915     0.05500
C445        C  0.35014454  0.54151790  0.84615247    -0.15000
C446        C  0.30795922  0.53763779  0.84346879     0.05500
C447        C  0.29723778  0.56120159  0.86545554     0.05500
C448        C  0.32623619  0.57987545  0.89284646    -0.15000
H449        H  0.31465402  0.59196955  0.91249987     0.07500
H450        H  0.35704948  0.51923133  0.83333372     0.07500
C451        C  0.05432325  0.08814838  0.52222372    -0.10000
C452        C  0.05342067  0.12072759  0.52713544    -0.11600
C453        C  0.27268516  0.50225810  0.82606451    -0.10000
C454        C  0.23830683  0.47136652  0.81881920    -0.11600
C455        C  0.17364316  0.51673680  0.87973069    -0.10000
C456        C  0.20560404  0.55114253  0.87652059    -0.11600
C457        C  0.06846492  0.29985215  0.91199024    -0.13200
C458        C  0.02979140  0.28204696  0.92781436    -0.28400
H459        H  0.09124683  0.28783731  0.91724189     0.15800
H460        H  0.00535716  0.29146543  0.92082014     0.16400
C461        C  0.00015578  0.32493688  0.75066248    -0.13200
C462        C  0.01600225  0.36148139  0.76751639    -0.28400
H463        H  0.00982868  0.30145735  0.75837752     0.15800
H464        H  0.00337699  0.38318763  0.76144865     0.16400
C465        C  0.97117329  0.26964627  0.59331102    -0.13200
C466        C  0.95074203  0.23122486  0.57904964    -0.28400
H467        H  0.00204068  0.29412059  0.58323092     0.15800
H468        H  0.91830503  0.20825823  0.58773440     0.16400
C469        C  0.16755806  0.02343758  0.47250662    -0.10000
C470        C  0.13091811  0.01729105  0.47834303    -0.11600
C471        C  0.40605159  0.79338732  0.82535575    -0.10000
C472        C  0.40437184  0.75938468  0.83130756    -0.11600
C473        C  0.27831529  0.70539263  0.85647121    -0.10000
C474        C  0.27995280  0.73928916  0.85168071    -0.11600
C475        C  0.28609892  0.90811063  0.88915458    -0.13200
C476        C  0.30717997  0.94639803  0.90329170    -0.27500
H477        H  0.25139369  0.88779613  0.89379486     0.15800
H478        H  0.34078692  0.96833235  0.89641795     0.16400
C479        C  0.38392804  0.95431343  0.72196250    -0.13200
C480        C  0.38489799  0.95872120  0.75557500    -0.28400
H481        H  0.37317364  0.92320166  0.71152612     0.15800
H482        H  0.39976467  0.99035430  0.76594746     0.16400
C483        C  0.34531251  0.01883896  0.55156987    -0.13200
C484        C  0.33800738  0.01150740  0.58489922    -0.28400
H485        H  0.37844932  0.03859683  0.54254637     0.15800
H486        H  0.30454320  0.99500036  0.59392720     0.16400
C487        C  0.93196119  0.03395666  0.47529411    -0.10000
C488        C  0.93521600  0.06867867  0.47067274    -0.11600
C489        C  0.55927804  0.12739826  0.68652797    -0.10000
C490        C  0.59250319  0.16114866  0.68511281    -0.11600
C491        C  0.78318241  0.24431156  0.67559045    -0.10000
C492        C  0.75017926  0.24741949  0.67263260    -0.11600
C493        C  0.49620574  0.18119864  0.63527890    -0.10000
C494        C  0.52797320  0.21583016  0.63737708    -0.11600
C495        C  0.80219566  0.34898689  0.66304181    -0.10000
C496        C  0.83900227  0.35381127  0.66148447    -0.11600
C497        C  0.44777976  0.55812940  0.88588815    -0.10000
C498        C  0.41833545  0.56563170  0.87820795    -0.11600
C499        C  0.50106026  0.66370924  0.85357609    -0.10000
C500        C  0.46752325  0.66567758  0.85546910    -0.11600
C501        C  0.85400480  0.87937284  0.49972333    -0.10000
C502        C  0.82756585  0.84673267  0.00987586    -0.11600
C503        C  0.67824721  0.67156096  0.96579962    -0.13200
C504        C  0.66459704  0.63525572  0.94916850    -0.28400
H505        H  0.66259921  0.69087364  0.96032303     0.15800
H506        H  0.67717061  0.61373182  0.95606204     0.16400
C507        C  0.60468670  0.37147074  0.64378119    -0.10000
C508        C  0.60574012  0.40545232  0.64433334    -0.11600
C509        C  0.71297117  0.44410083  0.71043382    -0.10000
C510        C  0.71626029  0.41371703  0.70203187    -0.11600
C511        C  0.69621814  0.61871712  0.62360615    -0.13200
C512        C  0.73372233  0.63255987  0.60655907    -0.28400
H513        H  0.67388226  0.63085454  0.61698586     0.15800
H514        H  0.75402791  0.61770970  0.61160448     0.16400
C515        C  0.60831092  0.54706305  0.77366816    -0.13200
C516        C  0.62980759  0.58305492  0.79117881    -0.28400
H517        H  0.57505034  0.52413877  0.78066172     0.15800
H518        H  0.66170460  0.60762369  0.78283810     0.16400
C519        C  0.08233877  0.91785541  0.49928472    -0.10000
C520        C  0.11616874  0.91635907  0.49871931    -0.11600
C521        C  0.90227152  0.80041776  0.54424006    -0.10000
C522        C  0.93308460  0.83472241  0.53789201    -0.11600
loop_ 
_geom_bond_atom_site_label_1 
_geom_bond_atom_site_label_2 
_geom_bond_distance 
_geom_bond_site_symmetry_2 
_ccdc_geom_bond_type 
C1            C2   1.407       .  A
C1            C6   1.403   1_655  A
C1          C522   1.442       .  S
C2          C264   1.408       .  A
C2          C334   1.504       .  S
C3            C4   1.426   1_655  A
C3          C263   1.408       .  A
C3            H8   1.077       .  S
C4            C5   1.434       .  A
C4          C158   1.545       .  S
C5          C267   1.414   1_556  A
C5          C258   1.442       .  S
C6          C266   1.411       .  A
C6            H7   1.085       .  S
In9          O11   2.249       .  S
In9          O12   2.232       .  S
In9          O20   2.241       .  S
In9          O14   2.273       .  S
In9          O16   2.249       .  S
In9          O17   2.260       .  S
In9          O18   2.258       .  S
In9          O21   2.256       .  S
C10         C248   1.443       .  S
C10          O16   1.258       .  A
C10          O18   1.263       .  A
O11          C19   1.263       .  A
O12          C19   1.257       .  A
C13          O20   1.261       .  A
C13          O14   1.266       .  A
C13         C254   1.482       .  S
C15          O17   1.263       .  A
C15          O21   1.264       .  A
C15         C250   1.484       .  S
C19         C247   1.433       .  S
In22         O24   2.211       .  S
In22         O33   2.238       .  S
In22         O27   2.247       .  S
In22         O29   2.236       .  S
In22        O286   2.259       .  S
In22        O291   2.261       .  S
In22        O292   2.216       .  S
In22        O295   2.224       .  S
C23         C260   1.439       .  S
C23          O31   1.265       .  A
C23         O290   1.274       .  A
O24          C32   1.260       .  A
O25        In283   2.244       .  S
O25         C293   1.276       .  A
C26          O33   1.267       .  A
C26          O27   1.269       .  A
C26         C242   1.481       .  S
C28          O30   1.271       .  A
C28          O34   1.265       .  A
C28         C251   1.481       .  S
O29         C284   1.273       .  A
O30        In283   2.264       .  S
O31        In283   2.220       .  S
C32         C241   1.441       .  S
C32         O286   1.274       .  A
O34        In283   2.225       .  S
In35         O37   2.232       .  S
In35         O38   2.242       .  S
In35         O46   2.253       .  S
In35         O40   2.243       .  S
In35         O42   2.253       .  S
In35         O43   2.259       .  S
In35         O44   2.247       .  S
In35         O47   2.249       .  S
C36         C238   1.443       .  S
C36          O42   1.260       .  A
C36          O44   1.259       .  A
O37          C45   1.261       .  A
O38          C45   1.262       .  A
C39          O46   1.268       .  A
C39          O40   1.265       .  A
C39         C255   1.483       .  S
C41          O43   1.265       .  A
C41          O47   1.264       .  A
C41         C243   1.480       .  S
C45         C236   1.438       .  S
C48          C49   1.411       .  A
C48          C53   1.406       .  A
C48          C56   1.497       .  S
C49          C50   1.411       .  A
C49         C249   1.451       .  S
C50          C51   1.418       .  A
C50          H55   1.084       .  S
C51          C52   1.419       .  A
C51         C234   1.447       .  S
C52          C53   1.418       .  A
C52          C64   1.543       .  S
C53          H54   1.078       .  S
C56          C57   1.414       .  A
C56          C61   1.411       .  A
C57          C58   1.405       .  A
C57         C246   1.443       .  S
C58          C59   1.406       .  A
C58          H63   1.084       .  S
C59          C60   1.413       .  A
C59         C233   1.441       .  S
C60          C61   1.411       .  A
C60          C68   1.508       .  S
C61          H62   1.085       .  S
C64          C65   1.436       .  A
C64          C69   1.425       .  A
C65          C66   1.411       .  A
C65         C231   1.442       .  S
C66          C67   1.401       .  A
C66          H71   1.085       .  S
C67          C68   1.405       .  A
C67         C229   1.443       .  S
C68          C69   1.408       .  A
C69          H70   1.077       .  S
C72          C73   1.412       .  A
C72          C77   1.406   1_554  A
C72         C240   1.441       .  S
C73          C74   1.410       .  A
C73         C263   1.506   1_554  S
C74          C75   1.410       .  A
C74          H79   1.085   1_655  S
C75          C76   1.414   1_554  A
C75         C162   1.495   1_664  S
C76          C77   1.405       .  A
C76         C226   1.443   1_565  S
C77          H78   1.084       .  S
In80         O82   2.205       .  S
In80         O83   2.246       .  S
In80         O91   2.236   1_545  S
In80         O85   2.242       .  S
In80         O87   2.241       .  S
In80         O88   2.242       .  S
In80         O89   2.207       .  S
In80         O92   2.224       .  S
C81         C232   1.432       .  S
C81          O87   1.273       .  A
C81          O89   1.261       .  A
O82          C90   1.261       .  A
O83          C90   1.273       .  A
C84          O91   1.268       .  A
C84          O85   1.270   1_565  A
C84         C218   1.481       .  S
C86          O88   1.271       .  A
C86          O92   1.266       .  A
C86         C223   1.473       .  S
C90         C228   1.435       .  S
In93         O95   2.214       .  S
In93         O96   2.243       .  S
In93        O104   2.226       .  S
In93         O98   2.249       .  S
In93        O100   2.236       .  S
In93        O101   2.235       .  S
In93        O102   2.202       .  S
In93        O105   2.231       .  S
C94         C213   1.434       .  S
C94         O100   1.276       .  A
C94         O102   1.264       .  A
O95         C103   1.265       .  A
O96         C103   1.275       .  A
C97         O104   1.268       .  A
C97          O98   1.272       .  A
C97         C219   1.479       .  S
C99         O101   1.271       .  A
C99         O105   1.269       .  A
C99         C214   1.477       .  S
C103        C210   1.440       .  S
In106       O108   2.236   1_565  S
In106       O117   2.241   1_565  S
In106       O111   2.247   1_556  S
In106       O113   2.234   1_556  S
In106       O370   2.243   1_565  S
In106       O375   2.246       .  S
In106       O376   2.235       .  S
In106       O379   2.239       .  S
C107        C259   1.436       .  S
C107        O113   1.261   1_556  A
C107        O376   1.263       .  A
O108        C116   1.261       .  A
O109       In367   2.251   1_545  S
O109        C377   1.263       .  A
C110        O117   1.264   1_554  A
C110        O111   1.266   1_545  A
C110        C222   1.477       .  S
C112        O114   1.267       .  A
C112        O118   1.264       .  A
C112        C215   1.476       .  S
O114       In367   2.249       .  S
O115       In367   2.226       .  S
O115        C368   1.259       .  A
C116        C208   1.439       .  S
C116        O370   1.260       .  A
O118       In367   2.234       .  S
In119       O121   2.227       .  S
In119       O122   2.251       .  S
In119       O130   2.230       .  S
In119       O124   2.252       .  S
In119       O126   2.246       .  S
In119       O127   2.253       .  S
In119       O128   2.226       .  S
In119       O131   2.235       .  S
C120        C230   1.435       .  S
C120        O126   1.263       .  A
C120        O128   1.258       .  A
O121        C129   1.258       .  A
O122        C129   1.263       .  A
C123        O130   1.264       .  A
C123        O124   1.268       .  A
C123        C200   1.476   1_655  S
C125        O127   1.266       .  A
C125        O131   1.264       .  A
C125        C204   1.480       .  S
C129        C235   1.437       .  S
In132       O134   2.247       .  S
In132       O135   2.238       .  S
In132       O143   2.248       .  S
In132       O137   2.247       .  S
In132       O139   2.252       .  S
In132       O140   2.274       .  S
In132       O141   2.248       .  S
In132       O144   2.241       .  S
C133        C193   1.438       .  S
C133        O139   1.257       .  A
C133        O141   1.261       .  A
O134        C142   1.262       .  A
O135        C142   1.258       .  A
C136        O143   1.264       .  A
C136        O137   1.263       .  A
C136        C201   1.476       .  S
C138        O140   1.267       .  A
C138        O144   1.262       .  A
C138        C196   1.485       .  S
C142        C194   1.436       .  S
In145       O147   2.241   1_554  S
In145       O156   2.230       .  S
In145       O150   2.267   1_655  S
In145       O152   2.252   1_655  S
In145       O409   2.235   1_554  S
In145       O414   2.257   1_554  S
In145       O415   2.254   1_655  S
In145       O418   2.249   1_654  S
C146        C191   1.441       .  S
C146        O152   1.258       .  A
C146        O415   1.261       .  A
O147        C155   1.261       .  A
O148       In406   2.248       .  S
O148        C416   1.258       .  A
C149        O156   1.260       .  A
C149        O150   1.266   1_655  A
C149        C205   1.476       .  S
C151        O153   1.263   1_455  A
C151        O157   1.265       .  A
C151        C197   1.486       .  S
O153       In406   2.259       .  S
O154       In406   2.257   1_455  S
O154        C407   1.262       .  A
C155        C227   1.432       .  S
C155        O409   1.258       .  A
O157       In406   2.264   1_455  S
C158        C159   1.423   1_565  A
C158        C163   1.418   1_565  A
C159        C160   1.417   1_556  A
C159        C209   1.447       .  S
C160        C161   1.408       .  A
C160        H165   1.085       .  S
C161        C162   1.409   1_554  A
C161        C190   1.449       .  S
C162        C163   1.407       .  A
C163        H164   1.078   1_445  S
C166        C167   1.415       .  A
C166        C171   1.410       .  A
C166        C178   1.508       .  S
C167        C168   1.407       .  A
C167        C212   1.442       .  S
C168        C169   1.405       .  A
C168        H173   1.084       .  S
C169        C170   1.415       .  A
C169        C195   1.446       .  S
C170        C171   1.411       .  A
C170        C186   1.496       .  S
C171        H172   1.085       .  S
C174        C175   1.433       .  A
C174        C179   1.425       .  A
C174        C182   1.545       .  S
C175        C176   1.417       .  A
C175        C239   1.450       .  S
C176        C177   1.409       .  A
C176        H181   1.085       .  S
C177        C178   1.405       .  A
C177        C211   1.447       .  S
C178        C179   1.406       .  A
C179        H180   1.077       .  S
C182        C183   1.423       .  A
C182        C187   1.419       .  A
C183        C184   1.416       .  A
C183        C237   1.446       .  S
C184        C185   1.408       .  A
C184        H189   1.085       .  S
C185        C186   1.408       .  A
C185        C192   1.446       .  S
C186        C187   1.406       .  A
C187        H188   1.078       .  S
C190        C191   1.211       .  T
C192        C193   1.209       .  T
C194        C195   1.208       .  T
C196        C197   1.346       .  D
C196        H198   1.086       .  S
C197        H199   1.086       .  S
C200        C201   1.342       .  D
C200        H202   1.087       .  S
C201        H203   1.086       .  S
C204        C205   1.344       .  D
C204        H206   1.086   1_655  S
C205        H207   1.087       .  S
C208        C209   1.211       .  T
C210        C211   1.211       .  T
C212        C213   1.207       .  T
C214        C215   1.342       .  D
C214        H216   1.086       .  S
C215        H217   1.086       .  S
C218        C219   1.343       .  D
C218        H220   1.086       .  S
C219        H221   1.087       .  S
C222        C223   1.341       .  D
C222        H224   1.087       .  S
C223        H225   1.086   1_545  S
C226        C227   1.206       .  T
C228        C229   1.208       .  T
C230        C231   1.208       .  T
C232        C233   1.206       .  T
C234        C235   1.210       .  T
C236        C237   1.211       .  T
C238        C239   1.213       .  T
C240        C502   1.206       .  T
C241        C501   1.211       .  T
C242        C243   1.345       .  D
C242        H244   1.087       .  S
C243        H245   1.086       .  S
C246        C247   1.207       .  T
C248        C249   1.212       .  T
C250        C251   1.345       .  D
C250        H252   1.086       .  S
C251        H253   1.087       .  S
C254        C255   1.344       .  D
C254        H256   1.087       .  S
C255        H257   1.086       .  S
C258        C259   1.208       .  T
C260        C261   1.210       .  T
C261        C262   1.446       .  S
C262        C263   1.405   1_554  A
C262        C267   1.404   1_655  A
C264        C265   1.425   1_655  A
C264        H269   1.078       .  S
C265        C266   1.429       .  A
C265        C419   1.545       .  S
C266        C519   1.440       .  S
C267        H268   1.085       .  S
In270       O272   2.251       .  S
In270       O273   2.238       .  S
In270       O281   2.239       .  S
In270       O275   2.268       .  S
In270       O277   2.243       .  S
In270       O278   2.257       .  S
In270       O279   2.257       .  S
In270       O282   2.250       .  S
C271        C509   1.441       .  S
C271        O277   1.257       .  A
C271        O279   1.263       .  A
O272        C280   1.262       .  A
O273        C280   1.257       .  A
C274        O281   1.262       .  A
C274        O275   1.267       .  A
C274        C515   1.481       .  S
C276        O278   1.264       .  A
C276        O282   1.265       .  A
C276        C511   1.482       .  S
C280        C508   1.436       .  S
In283       O285   2.204   1_554  S
In283       O294   2.210       .  S
In283       O288   2.258   1_554  S
In283       O290   2.240       .  S
C284        C521   1.435       .  S
C284        O292   1.264       .  A
O285        C293   1.263   1_556  A
C287        O294   1.264   1_556  A
C287        O288   1.272       .  A
C287        C503   1.474       .  S
C289        O291   1.271       .  A
C289        O295   1.266       .  A
C289        C512   1.481       .  S
C293        C502   1.433       .  S
In296       O298   2.239       .  S
In296       O299   2.237       .  S
In296       O307   2.245       .  S
In296       O301   2.253       .  S
In296       O303   2.243       .  S
In296       O304   2.266       .  S
In296       O305   2.244       .  S
In296       O308   2.227       .  S
C297        C499   1.437       .  S
C297        O303   1.259       .  A
C297        O305   1.261       .  A
O298        C306   1.262       .  A
O299        C306   1.259       .  A
C300        O307   1.265       .  A
C300        O301   1.265       .  A
C300        C516   1.483       .  S
C302        O304   1.266       .  A
C302        O308   1.263       .  A
C302        C504   1.480       .  S
C306        C497   1.439       .  S
C309        C310   1.410       .  A
C309        C314   1.407       .  A
C309        C317   1.500       .  S
C310        C311   1.410       .  A
C310        C510   1.449       .  S
C311        C312   1.417       .  A
C311        H316   1.085       .  S
C312        C313   1.423       .  A
C312        C495   1.449       .  S
C313        C314   1.422       .  A
C313        C325   1.546       .  S
C314        H315   1.078       .  S
C317        C318   1.416       .  A
C317        C322   1.409       .  A
C318        C319   1.407       .  A
C318        C507   1.445       .  S
C319        C320   1.407       .  A
C319        H324   1.084       .  S
C320        C321   1.413       .  A
C320        C494   1.442       .  S
C321        C322   1.409       .  A
C321        C329   1.502       .  S
C322        H323   1.085       .  S
C325        C326   1.434       .  A
C325        C330   1.423       .  A
C326        C327   1.414       .  A
C326        C492   1.446       .  S
C327        C328   1.404       .  A
C327        H332   1.085       .  S
C328        C329   1.405       .  A
C328        C490   1.445       .  S
C329        C330   1.408       .  A
C330        H331   1.078       .  S
C333        C334   1.414       .  A
C333        C338   1.411       .  A
C333        C501   1.450       .  S
C334        C335   1.409       .  A
C335        C336   1.409       .  A
C335        H340   1.086       .  S
C336        C337   1.416       .  A
C336        C423   1.499   1_665  S
C337        C338   1.411       .  A
C337        C487   1.448   1_565  S
C338        H339   1.084       .  S
In341       O343   2.210       .  S
In341       O344   2.230       .  S
In341       O352   2.227   1_545  S
In341       O346   2.235       .  S
In341       O348   2.228       .  S
In341       O349   2.239       .  S
In341       O350   2.202       .  S
In341       O353   2.216       .  S
C342        C493   1.434       .  S
C342        O348   1.278       .  A
C342        O350   1.268       .  A
O343        C351   1.268       .  A
O344        C351   1.277       .  A
C345        O352   1.270       .  A
C345        O346   1.273   1_565  A
C345        C479   1.479       .  S
C347        O349   1.273       .  A
C347        O353   1.269       .  A
C347        C484   1.476       .  S
C351        C489   1.438       .  S
In354       O356   2.225       .  S
In354       O357   2.251       .  S
In354       O365   2.221       .  S
In354       O359   2.254       .  S
In354       O361   2.232       .  S
In354       O362   2.241       .  S
In354       O363   2.195       .  S
In354       O366   2.224       .  S
C355        C474   1.431       .  S
C355        O361   1.277       .  A
C355        O363   1.265       .  A
O356        C364   1.264       .  A
O357        C364   1.274       .  A
C358        O365   1.266       .  A
C358        O359   1.272       .  A
C358        C480   1.478       .  S
C360        O362   1.272       .  A
C360        O366   1.267       .  A
C360        C475   1.475       .  S
C364        C471   1.447       .  S
In367       O369   2.235   1_565  S
In367       O378   2.252   1_565  S
In367       O372   2.234       .  S
In367       O374   2.238       .  S
C368        C520   1.433       .  S
C368        O374   1.263       .  A
O369        C377   1.259       .  A
C371        O378   1.267       .  A
C371        O372   1.265   1_545  A
C371        C483   1.479       .  S
C373        O375   1.264       .  A
C373        O379   1.265       .  A
C373        C476   1.476       .  S
C377        C469   1.443       .  S
In380       O382   2.231       .  S
In380       O383   2.252       .  S
In380       O391   2.245       .  S
In380       O385   2.260       .  S
In380       O387   2.254       .  S
In380       O388   2.264       .  S
In380       O389   2.232       .  S
In380       O392   2.246       .  S
C381        C491   1.440       .  S
C381        O387   1.264       .  A
C381        O389   1.258       .  A
O382        C390   1.259       .  A
O383        C390   1.264       .  A
C384        O391   1.265       .  A
C384        O385   1.267       .  A
C384        C461   1.484   1_655  S
C386        O388   1.267       .  A
C386        O392   1.265       .  A
C386        C465   1.488       .  S
C390        C496   1.440       .  S
In393       O395   2.242       .  S
In393       O396   2.245       .  S
In393       O404   2.247       .  S
In393       O398   2.268       .  S
In393       O400   2.259       .  S
In393       O401   2.264       .  S
In393       O402   2.253       .  S
In393       O405   2.238       .  S
C394        C454   1.443       .  S
C394        O400   1.259       .  A
C394        O402   1.260       .  A
O395        C403   1.260       .  A
O396        C403   1.258       .  A
C397        O404   1.262       .  A
C397        O398   1.265       .  A
C397        C462   1.482       .  S
C399        O401   1.266       .  A
C399        O405   1.262       .  A
C399        C457   1.478       .  S
C403        C455   1.435       .  S
In406       O408   2.251       .  S
In406       O417   2.234       .  S
In406       O411   2.282   1_655  S
In406       O413   2.248   1_655  S
C407        C452   1.441       .  S
C407        O413   1.257       .  A
O408        C416   1.261       .  A
C410        O417   1.262       .  A
C410        O411   1.267   1_655  A
C410        C466   1.483       .  S
C412        O414   1.263   1_455  A
C412        O418   1.264       .  A
C412        C458   1.480       .  S
C416        C488   1.439       .  S
C419        C420   1.426   1_565  A
C419        C424   1.419   1_565  A
C420        C421   1.416       .  A
C420        C470   1.451       .  S
C421        C422   1.409       .  A
C421        H426   1.085       .  S
C422        C423   1.411       .  A
C422        C451   1.448       .  S
C423        C424   1.407       .  A
C424        H425   1.079   1_445  S
C427        C428   1.411       .  A
C427        C432   1.409       .  A
C427        C439   1.509       .  S
C428        C429   1.406       .  A
C428        C473   1.439       .  S
C429        C430   1.405       .  A
C429        H434   1.084       .  S
C430        C431   1.414       .  A
C430        C456   1.445       .  S
C431        C432   1.411       .  A
C431        C447   1.494       .  S
C432        H433   1.085       .  S
C435        C436   1.434       .  A
C435        C440   1.426       .  A
C435        C443   1.548       .  S
C436        C437   1.418       .  A
C436        C500   1.444       .  S
C437        C438   1.408       .  A
C437        H442   1.085       .  S
C438        C439   1.407       .  A
C438        C472   1.455       .  S
C439        C440   1.409       .  A
C440        H441   1.077       .  S
C443        C444   1.424       .  A
C443        C448   1.417       .  A
C444        C445   1.419       .  A
C444        C498   1.449       .  S
C445        C446   1.410       .  A
C445        H450   1.085       .  S
C446        C447   1.408       .  A
C446        C453   1.450       .  S
C447        C448   1.406       .  A
C448        H449   1.078       .  S
C451        C452   1.211       .  T
C453        C454   1.212       .  T
C455        C456   1.208       .  T
C457        C458   1.343       .  D
C457        H459   1.087       .  S
C458        H460   1.086       .  S
C461        C462   1.346       .  D
C461        H463   1.086       .  S
C462        H464   1.087       .  S
C465        C466   1.347       .  D
C465        H467   1.086   1_655  S
C466        H468   1.087       .  S
C469        C470   1.213       .  T
C471        C472   1.215       .  T
C473        C474   1.205       .  T
C475        C476   1.341       .  D
C475        H477   1.087       .  S
C476        H478   1.086       .  S
C479        C480   1.341       .  D
C479        H481   1.086       .  S
C480        H482   1.087       .  S
C483        C484   1.344       .  D
C483        H485   1.086       .  S
C484        H486   1.087   1_545  S
C487        C488   1.210       .  T
C489        C490   1.209       .  T
C491        C492   1.211       .  T
C493        C494   1.207       .  T
C495        C496   1.212       .  T
C497        C498   1.211       .  T
C499        C500   1.209       .  T
C503        C504   1.342       .  D
C503        H505   1.087       .  S
C504        H506   1.086       .  S
C507        C508   1.208       .  T
C509        C510   1.211       .  T
C511        C512   1.345       .  D
C511        H513   1.086       .  S
C512        H514   1.087       .  S
C515        C516   1.345       .  D
C515        H517   1.087       .  S
C516        H518   1.086       .  S
C519        C520   1.207       .  T
C521        C522   1.208       .  T
