geometry optimzed in LAMMPS
_audit_creation_date              2020-11-30 
_audit_creation_method            'lammps2cif' 
_symmetry_space_group_name_H-M    'P1' 
_symmetry_Int_Tables_number       1 
_symmetry_cell_setting            triclinic 
loop_ 
_symmetry_equiv_pos_as_xyz 
  x,y,z 
_cell_length_a                    44.65905965 
_cell_length_b                    44.809365890565886 
_cell_length_c                    44.76627886129505 
_cell_angle_alpha                 90.30114691316493 
_cell_angle_beta                  90.03514229543555 
_cell_angle_gamma                 89.88170156006198 
loop_ 
_atom_site_label 
_atom_site_type_symbol 
_atom_site_fract_x 
_atom_site_fract_y 
_atom_site_fract_z 
_atom_site_charge 
O1          O  0.81377014  0.28365516  0.87003424    -0.86300
O2          O  0.81940088  0.33919854  0.84549433    -0.83400
C3          C  0.81567480  0.35258600  0.87003668     0.97100
O4          O  0.83710145  0.35462704  0.88808391    -0.83400
O5          O  0.88498360  0.33611293  0.92094462    -0.86000
C6          C  0.87532162  0.31503091  0.93726997     1.01700
O7          O  0.86894351  0.29016151  0.92573006    -0.78800
O8          O  0.84640198  0.25041790  0.88451742    -0.79000
C9          C  0.81935887  0.25863234  0.88142774     1.01600
O10         O  0.85619070  0.26029242  0.82828555    -0.86300
O11         O  0.86717467  0.31659245  0.80944901    -0.83400
C12         C  0.87522918  0.34344662  0.80930738     0.97200
O13         O  0.87488062  0.35881298  0.83344720    -0.83400
O14         O  0.92138934  0.33608261  0.86747226    -0.86000
C15         C  0.93668410  0.31670070  0.88103469     1.01600
O16         O  0.92397918  0.29475984  0.89343901    -0.78800
O17         O  0.90033167  0.25849801  0.84936412    -0.79000
C18         C  0.88268635  0.25041787  0.82893267     1.01600
Cr19       Cr  0.84107541  0.30044054  0.84034657     1.93700
Cr20       Cr  0.87880541  0.34388666  0.87672693     1.93200
Cr21       Cr  0.88386696  0.27581185  0.88689265     1.39100
O22         O  0.86833818  0.30677944  0.86795748    -1.24100
O23         O  0.71967472  0.13780232  0.82329825    -0.86300
O24         O  0.66207775  0.12805395  0.80675172    -0.83400
C25         C  0.63490643  0.12095233  0.80763735     0.97100
O26         O  0.62067762  0.12102243  0.83237015    -0.83400
O27         O  0.64346828  0.07267855  0.86317218    -0.86000
C28         C  0.66390520  0.05647237  0.87405852     1.01700
O29         O  0.68671069  0.06785169  0.88648852    -0.78800
O30         O  0.72187204  0.09306985  0.84224805    -0.79000
C31         C  0.72953087  0.11138061  0.82236782     1.01600
O32         O  0.69880885  0.17867356  0.86773087    -0.86300
O33         O  0.64184759  0.17490894  0.84507772    -0.83400
C34         C  0.63119775  0.17917561  0.87075795     0.97200
O35         O  0.62922405  0.15733116  0.88825644    -0.83400
O36         O  0.64679846  0.10682949  0.91794705    -0.86000
C37         C  0.66889417  0.11547863  0.93355798     1.01600
O38         O  0.69361011  0.12134793  0.92139563    -0.78800
O39         O  0.73193545  0.14498000  0.87996957    -0.79000
C40         C  0.72430959  0.17222216  0.87756933     1.01600
Cr41       Cr  0.68015548  0.15282762  0.83771386     1.93700
Cr42       Cr  0.63743688  0.11523656  0.87460261     1.93200
Cr43       Cr  0.70611119  0.10791303  0.88134653     1.39100
O44         O  0.67453476  0.12475444  0.86445979    -1.24100
O45         O  0.85755577  0.16471984  0.72588540    -0.86300
O46         O  0.86928214  0.17930357  0.66826360    -0.83400
C47         C  0.87673233  0.17799257  0.64125594     0.97100
O48         O  0.87633768  0.15302537  0.62747036    -0.83400
O49         O  0.92309225  0.12118375  0.65309648    -0.86000
C50         C  0.93837040  0.10959735  0.67382488     1.01700
O51         O  0.92545470  0.09708055  0.69571542    -0.78800
O52         O  0.90089000  0.14236560  0.73034154    -0.79000
C53         C  0.88366645  0.16380730  0.73670552     1.01600
O54         O  0.81442988  0.12222749  0.70531968    -0.86300
O55         O  0.82093610  0.14256300  0.64788716    -0.83400
C56         C  0.81705315  0.11724937  0.63610216     0.97200
O57         O  0.83852513  0.09902750  0.63507992    -0.83400
O58         O  0.88705626  0.06762942  0.65516302    -0.86000
C59         C  0.87653192  0.05232360  0.67651420     1.01600
O60         O  0.86988819  0.06486264  0.70086614    -0.78800
O61         O  0.84668058  0.10755485  0.73887750    -0.79000
C62         C  0.81965876  0.11160375  0.73073372     1.01600
Cr63       Cr  0.84255894  0.15006794  0.68645222     1.93700
Cr64       Cr  0.88045296  0.11108772  0.64524828     1.93200
Cr65       Cr  0.88468542  0.10421677  0.71394923     1.39100
O66         O  0.86958868  0.12180128  0.68190837    -1.24100
O67         O  0.67625753  0.34237767  0.77852483    -0.86300
O68         O  0.69419643  0.35577052  0.83454869    -0.83400
C69         C  0.69414787  0.36455620  0.86121313     0.97100
O70         O  0.67034110  0.36345950  0.87688909    -0.83400
O71         O  0.63700186  0.41044502  0.85505098    -0.86000
C72         C  0.62671106  0.42609259  0.83394987     1.01700
O73         O  0.61415997  0.41381728  0.81159653    -0.78800
O74         O  0.65714563  0.38704728  0.77659240    -0.79000
C75         C  0.67717408  0.36873234  0.76904854     1.01600
O76         O  0.63409069  0.30156523  0.80171296    -0.86300
O77         O  0.65908583  0.30858251  0.85806339    -0.83400
C78         C  0.63430653  0.30418737  0.87058788     0.97200
O79         O  0.61564162  0.32533361  0.87184729    -0.83400
O80         O  0.58352467  0.37477635  0.85387382    -0.86000
C81         C  0.56737810  0.36627353  0.83215337     1.01600
O82         O  0.57873213  0.36001858  0.80715297    -0.78800
O83         O  0.61935342  0.33457099  0.76891605    -0.79000
C84         C  0.62285097  0.30742814  0.77660239     1.01600
Cr85       Cr  0.66376318  0.32909433  0.81882506     1.93700
Cr86       Cr  0.62731060  0.36756325  0.86192344     1.93200
Cr87       Cr  0.61852796  0.37278509  0.79342920     1.39100
O88         O  0.63634658  0.35687805  0.82477094    -1.24100
O89         O  0.77397964  0.31578401  0.64454397    -0.86300
O90         O  0.83132827  0.29804870  0.63314832    -0.83400
C91         C  0.85874246  0.29837468  0.62670749     0.97100
O92         O  0.87317409  0.32282072  0.62745191    -0.83400
O93         O  0.84891020  0.35558290  0.58043515    -0.86000
C94         C  0.82891324  0.36886867  0.56543559     1.01700
O95         O  0.80802242  0.38277739  0.57879237    -0.78800
O96         O  0.77110048  0.33940361  0.60197075    -0.79000
C97         C  0.76330843  0.31815435  0.61857040     1.01600
O98         O  0.79582129  0.35636799  0.68870455    -0.86300
O99         O  0.85240817  0.33362388  0.68219640    -0.83400
C100        C  0.86557300  0.35812444  0.68663861     0.97200
O101        O  0.86784175  0.37653327  0.66548815    -0.83400
O102        O  0.84963382  0.40920290  0.61630511    -0.86000
C103        C  0.82890619  0.42589465  0.62623478     1.01600
O104        O  0.80444103  0.41476405  0.63463943    -0.78800
O105        O  0.76395710  0.37402446  0.65625248    -0.79000
C106        C  0.77138434  0.36919006  0.68318295     1.01600
Cr107      Cr  0.81390464  0.32811713  0.66013418     1.93700
Cr108      Cr  0.85731289  0.36533224  0.62323856     1.93200
Cr109      Cr  0.78925731  0.37632495  0.61899785     1.39100
O110        O  0.82012303  0.35658929  0.63386425    -1.24100
O111        O  0.63715409  0.19492116  0.68810374    -0.86300
O112        O  0.65670059  0.13726265  0.68272841    -0.83400
C113        C  0.63116601  0.12548687  0.68534678     0.97100
O114        O  0.61417540  0.12339650  0.66293784    -0.83400
O115        O  0.58498975  0.14245894  0.61236773    -0.86000
C116        C  0.56868626  0.16267011  0.62377567     1.01700
O117        O  0.58014469  0.18673058  0.63281526    -0.78800
O118        O  0.62153904  0.22671986  0.65485272    -0.79000
C119        C  0.62503273  0.21952897  0.68192744     1.01600
O120        O  0.68068760  0.21391632  0.64464381    -0.86300
O121        O  0.69590073  0.15584108  0.63553135    -0.83400
C122        C  0.69467643  0.12865788  0.62870603     0.97200
O123        O  0.66966542  0.11518913  0.62829289    -0.83400
O124        O  0.64052071  0.14105868  0.57991186    -0.86000
C125        C  0.62856617  0.16160980  0.56469237     1.01600
O126        O  0.61352984  0.18206443  0.57747973    -0.78800
O127        O  0.65675505  0.21833252  0.60204102    -0.79000
C128        C  0.67826496  0.22525027  0.61890794     1.01600
Cr129      Cr  0.66556654  0.17506900  0.66071039     1.93700
Cr130      Cr  0.62815737  0.13302164  0.62175389     1.93200
Cr131      Cr  0.61922794  0.20101056  0.61787965     1.39100
O132        O  0.63788366  0.16978658  0.63314365    -1.24100
O133        O  0.19070370  0.11791916  0.71169941    -0.86300
O134        O  0.18752445  0.14323791  0.65570968    -0.83400
C135        C  0.19268001  0.11863728  0.64314938     0.97100
O136        O  0.17153920  0.10033497  0.63974614    -0.83400
O137        O  0.12268812  0.06709898  0.65590349    -0.86000
C138        C  0.13106760  0.05110551  0.67781837     1.01700
O139        O  0.13591253  0.06287443  0.70292763    -0.78800
O140        O  0.15644863  0.10395760  0.74343472    -0.79000
C141        C  0.18389896  0.10712011  0.73666133     1.01600
O142        O  0.14723697  0.15981036  0.73271993    -0.86300
O143        O  0.13889050  0.17873861  0.67574840    -0.83400
C144        C  0.13209165  0.17888322  0.64845288     0.97200
O145        O  0.13263623  0.15456817  0.63334784    -0.83400
O146        O  0.08495188  0.11999808  0.65388953    -0.86000
C147        C  0.06892602  0.10701247  0.67319512     1.01600
O148        O  0.08099275  0.09458356  0.69551439    -0.78800
O149        O  0.10289175  0.13944860  0.73167468    -0.79000
C150        C  0.12002631  0.16005239  0.74021224     1.01600
Cr151      Cr  0.16418485  0.14782398  0.69339246     1.93700
Cr152      Cr  0.12860239  0.11126389  0.64815967     1.93200
Cr153      Cr  0.12023858  0.10161713  0.71608265     1.39100
O154        O  0.13721772  0.12025460  0.68572472    -1.24100
O155        O  0.29008082  0.17429936  0.88034002    -0.86300
O156        O  0.34703370  0.17448443  0.85481534    -0.83400
C157        C  0.36359577  0.17793934  0.87731698     0.97100
O158        O  0.36644226  0.15709246  0.89589839    -0.83400
O159        O  0.35113564  0.10652435  0.92737542    -0.86000
C160        C  0.32842796  0.11071594  0.94386982     1.01700
O161        O  0.30264600  0.11466590  0.93303228    -0.78800
O162        O  0.26145822  0.13666167  0.89314607    -0.79000
C163        C  0.26592232  0.16459175  0.89131543     1.01600
O164        O  0.27186817  0.13217670  0.83684168    -0.86300
O165        O  0.32949207  0.12631764  0.81755837    -0.83400
C166        C  0.35701160  0.12010238  0.81740885     0.97200
O167        O  0.37230965  0.12115176  0.84135062    -0.83400
O168        O  0.35447432  0.07185620  0.87272443    -0.86000
C169        C  0.33553864  0.05408253  0.88348031     1.01600
O170        O  0.31240687  0.06353133  0.89660640    -0.78800
O171        O  0.27543994  0.08675298  0.85319297    -0.79000
C172        C  0.26608206  0.10487575  0.83387107     1.01600
Cr173      Cr  0.31050834  0.14979081  0.84953244     1.93700
Cr174      Cr  0.35813147  0.11474274  0.88385136     1.93200
Cr175      Cr  0.29026730  0.10196450  0.89272415     1.39100
O176        O  0.31983016  0.12215721  0.87582524    -1.24100
O177        O  0.13134772  0.28056749  0.81510317    -0.86300
O178        O  0.15756072  0.33560832  0.81867857    -0.83400
C179        C  0.13376127  0.35022880  0.81471669     0.97100
O180        O  0.11608088  0.35438455  0.83631157    -0.83400
O181        O  0.08339801  0.33903508  0.88632895    -0.86000
C182        C  0.06585970  0.31819327  0.87837043     1.01700
O183        O  0.07584139  0.29283487  0.87126317    -0.78800
O184        O  0.11475593  0.25043953  0.84943628    -0.79000
C185        C  0.11863904  0.25661174  0.82202921     1.01600
O186        O  0.17266411  0.25791243  0.85809970    -0.86300
O187        O  0.19306611  0.31417064  0.86714542    -0.83400
C188        C  0.19447558  0.34139299  0.87388427     0.97200
O189        O  0.17106213  0.35765564  0.87301582    -0.83400
O190        O  0.13794443  0.33775514  0.92119666    -0.86000
C191        C  0.12471854  0.31888806  0.93738621     1.01600
O192        O  0.10969142  0.29800677  0.92546841    -0.78800
O193        O  0.15169449  0.25937389  0.90219486    -0.79000
C194        C  0.17146449  0.24926756  0.88482241     1.01600
Cr195      Cr  0.16160702  0.29784939  0.84174734     1.93700
Cr196      Cr  0.12762056  0.34459992  0.87842394     1.93200
Cr197      Cr  0.11443008  0.27738932  0.88584695     1.39100
O198        O  0.13440289  0.30670471  0.86884410    -1.24100
O199        O  0.36173578  0.31911243  0.76825525    -0.86300
O200        O  0.37149428  0.29808647  0.82513512    -0.83400
C201        C  0.37800159  0.29712621  0.85251414     0.97100
O202        O  0.37547283  0.32049685  0.86872933    -0.83400
O203        O  0.42255017  0.35461370  0.84983255    -0.86000
C204        C  0.43880891  0.36790551  0.83120085     1.01700
O205        O  0.42754408  0.38225153  0.80962679    -0.78800
O206        O  0.40543232  0.34088255  0.76964174    -0.79000
C207        C  0.38799406  0.32203735  0.75819142     1.01600
O208        O  0.31746602  0.35853149  0.79197639    -0.86300
O209        O  0.32187296  0.33184448  0.84689232    -0.83400
C210        C  0.31700183  0.35525955  0.86191988     0.97200
O211        O  0.33727962  0.37452085  0.86470739    -0.83400
O212        O  0.38684663  0.40840120  0.85058525    -0.86000
C213        C  0.37938602  0.42531696  0.82917063     1.01600
O214        O  0.37205892  0.41454340  0.80434259    -0.78800
O215        O  0.35142084  0.37683746  0.76213317    -0.79000
C216        C  0.32406097  0.37278660  0.76876169     1.01600
Cr217      Cr  0.34508412  0.32885199  0.80878258     1.93700
Cr218      Cr  0.37977630  0.36400381  0.85583879     1.93200
Cr219      Cr  0.38802516  0.37710289  0.78869720     1.39100
O220        O  0.37131488  0.35665681  0.81780573    -1.24100
O221        O  0.23305939  0.34589882  0.67262979    -0.86300
O222        O  0.17616615  0.35470114  0.69214061    -0.83400
C223        C  0.14885638  0.36164580  0.69256365     0.97100
O224        O  0.13311980  0.36017299  0.66872072    -0.83400
O225        O  0.15167175  0.40866913  0.63598063    -0.86000
C226        C  0.17170507  0.42582405  0.62597843     1.01700
O227        O  0.19428500  0.41525230  0.61240561    -0.78800
O228        O  0.23145340  0.39088411  0.65461687    -0.79000
C229        C  0.24047693  0.37292896  0.67413361     1.01600
O230        O  0.21129620  0.30454825  0.62945629    -0.86300
O231        O  0.15564702  0.30678315  0.65628823    -0.83400
C232        C  0.14171868  0.30193971  0.63236568     0.97200
O233        O  0.13928706  0.32269210  0.61351187    -0.83400
O234        O  0.15451485  0.37385743  0.58135689    -0.86000
C235        C  0.17720808  0.36872281  0.56490484     1.01600
O236        O  0.20202844  0.36232740  0.57648133    -0.78800
O237        O  0.24235441  0.33968392  0.61600056    -0.79000
C238        C  0.23577737  0.31220676  0.61773574     1.01600
Cr239      Cr  0.19337129  0.32996191  0.66053547     1.93700
Cr240      Cr  0.14722282  0.36557350  0.62540717     1.93200
Cr241      Cr  0.21521508  0.37577149  0.61611205     1.39100
O242        O  0.18512939  0.35753998  0.63392484    -1.24100
O243        O  0.31944604  0.19913151  0.63959635    -0.86300
O244        O  0.32350150  0.14354060  0.66461436    -0.83400
C245        C  0.31793533  0.12890899  0.64100903     0.97100
O246        O  0.33807948  0.12578572  0.62149689    -0.83400
O247        O  0.38686057  0.13960841  0.58645176    -0.86000
C248        C  0.37645287  0.15996456  0.56980306     1.01700
O249        O  0.37077135  0.18537970  0.58034726    -0.78800
O250        O  0.35297785  0.22831633  0.61948393    -0.79000
C251        C  0.32578797  0.22204730  0.62477588     1.01600
O252        O  0.36604799  0.22077950  0.67715969    -0.86300
O253        O  0.37551048  0.16403966  0.69716461    -0.83400
C254        C  0.38000217  0.13634885  0.69779056     0.97200
O255        O  0.37709254  0.12079088  0.67411252    -0.83400
O256        O  0.42419071  0.14057514  0.63923947    -0.86000
C257        C  0.43986504  0.15884843  0.62466902     1.01600
O258        O  0.42777029  0.17961090  0.60979244    -0.78800
O259        O  0.40822345  0.22025157  0.65230193    -0.79000
C260        C  0.39193344  0.23112194  0.67257352     1.01600
Cr261      Cr  0.34801434  0.18114540  0.66761877     1.93700
Cr262      Cr  0.38101547  0.13426707  0.63088796     1.93200
Cr263      Cr  0.38888901  0.20110525  0.61706720     1.39100
O264        O  0.37289178  0.17221561  0.63851588    -1.24100
O265        O  0.29776233  0.85761884  0.81712859    -0.86300
O266        O  0.35480995  0.83426768  0.82189897    -0.83400
C267        C  0.36654671  0.85923880  0.81688546     0.97100
O268        O  0.36921350  0.87772191  0.83805278    -0.83400
O269        O  0.35326184  0.90948394  0.88847895    -0.86000
C270        C  0.33207148  0.92594828  0.87948156     1.01700
O271        O  0.30687194  0.91490020  0.87312031    -0.78800
O272        O  0.26605417  0.87369829  0.85074044    -0.79000
C273        C  0.27250329  0.86838236  0.82348410     1.01600
O274        O  0.27699820  0.81616875  0.86006868    -0.86300
O275        O  0.33432663  0.79914002  0.87070325    -0.83400
C276        C  0.36168189  0.79949903  0.87732559     0.97200
O277        O  0.37660666  0.82356324  0.87544716    -0.83400
O278        O  0.35516396  0.85614299  0.92343308    -0.86000
C279        C  0.33538487  0.86813473  0.93978907     1.01600
O280        O  0.31300346  0.88121473  0.92795845    -0.78800
O281        O  0.27551425  0.83789058  0.90387825    -0.79000
C282        C  0.26710139  0.81737175  0.88637647     1.01600
Cr283      Cr  0.31659863  0.82892224  0.84441370     1.93700
Cr284      Cr  0.36097680  0.86600080  0.88052193     1.93200
Cr285      Cr  0.29270097  0.87571886  0.88779826     1.39100
O286        O  0.32337795  0.85692858  0.87130233    -1.24100
O287        O  0.18812522  0.69892744  0.87169680    -0.86300
O288        O  0.18433171  0.64098254  0.84943456    -0.83400
C289        C  0.18725474  0.62698915  0.87362717     0.97100
O290        O  0.16566965  0.62563262  0.89171042    -0.83400
O291        O  0.11601981  0.64503047  0.92313043    -0.86000
C292        C  0.12417516  0.66743631  0.93861343     1.01700
O293        O  0.13216022  0.69116989  0.92610652    -0.78800
O294        O  0.15295074  0.73035726  0.88465453    -0.79000
C295        C  0.18057210  0.72380131  0.88274124     1.01600
O296        O  0.14472950  0.71737143  0.82852467    -0.86300
O297        O  0.13634143  0.66013011  0.81207890    -0.83400
C298        C  0.12770877  0.63349433  0.81300241     0.97200
O299        O  0.12856658  0.61891087  0.83732033    -0.83400
O300        O  0.08072855  0.64211527  0.86888612    -0.86000
C301        C  0.06478375  0.66177543  0.88151765     1.01600
O302        O  0.07706190  0.68385691  0.89427596    -0.78800
O303        O  0.10020297  0.71757428  0.84875006    -0.79000
C304        C  0.11753115  0.72503505  0.82796350     1.01600
Cr305      Cr  0.16148411  0.67873044  0.84255893     1.93700
Cr306      Cr  0.12363710  0.63546771  0.87953236     1.93200
Cr307      Cr  0.11679389  0.70345738  0.88718787     1.39100
O308        O  0.13384321  0.67240209  0.86985244    -1.24100
O309        O  0.12696898  0.79854933  0.70706314    -0.86300
O310        O  0.15123279  0.80375189  0.65035000    -0.83400
C311        C  0.12627169  0.80075696  0.63761077     0.97100
O312        O  0.10850943  0.82259277  0.63680915    -0.83400
O313        O  0.07882266  0.87311993  0.65567045    -0.86000
C314        C  0.06261989  0.86584559  0.67773125     1.01700
O315        O  0.07425615  0.85922508  0.70247858    -0.78800
O316        O  0.11429546  0.83277914  0.73984128    -0.79000
C317        C  0.11560745  0.80550621  0.73189720     1.01600
O318        O  0.17154764  0.83773226  0.72984906    -0.86300
O319        O  0.18919872  0.84951995  0.67307772    -0.83400
C320        C  0.18889343  0.85813696  0.64640278     0.97200
O321        O  0.16471406  0.85775776  0.63124225    -0.83400
O322        O  0.13430378  0.90587634  0.65378261    -0.86000
C323        C  0.12436399  0.92223410  0.67452026     1.01600
O324        O  0.11185123  0.91110677  0.69727084    -0.78800
O325        O  0.15468535  0.88325784  0.73193648    -0.79000
C326        C  0.17403028  0.86414248  0.73939584     1.01600
Cr327      Cr  0.15771991  0.82446626  0.68953684     1.93700
Cr328      Cr  0.12224452  0.86393176  0.64693895     1.93200
Cr329      Cr  0.11494009  0.87044520  0.71552341     1.39100
O330        O  0.13143899  0.85328555  0.68395268    -1.24100
O331        O  0.30729208  0.62262825  0.79963943    -0.86300
O332        O  0.31388099  0.64387047  0.85720823    -0.83400
C333        C  0.31049247  0.61891295  0.86968019     0.97100
O334        O  0.33237608  0.60117887  0.87154466    -0.83400
O335        O  0.38131185  0.56952338  0.85191365    -0.86000
C336        C  0.37129805  0.55346493  0.83080864     1.01700
O337        O  0.36231399  0.56507171  0.80683987    -0.78800
O338        O  0.34030488  0.60665075  0.76737161    -0.79000
C339        C  0.31318603  0.61108428  0.77461982     1.01600
O340        O  0.35110658  0.66428550  0.77920779    -0.86300
O341        O  0.36224456  0.68051714  0.83654648    -0.83400
C342        C  0.37031085  0.67950676  0.86341772     0.97200
O343        O  0.36984800  0.65500018  0.87753065    -0.83400
O344        O  0.41696575  0.62329919  0.85188090    -0.86000
C345        C  0.43177591  0.61091556  0.83105309     1.01600
O346        O  0.41809344  0.59645854  0.81087687    -0.78800
O347        O  0.39409027  0.64091109  0.77600076    -0.79000
C348        C  0.37718229  0.66208038  0.76853752     1.01600
Cr349      Cr  0.33560962  0.65068073  0.81868009     1.93700
Cr350      Cr  0.37421453  0.61302950  0.86075363     1.93200
Cr351      Cr  0.37757826  0.60360599  0.79268842     1.39100
O352        O  0.36264148  0.62243613  0.82404654    -1.24100
O353        O  0.36743301  0.77827991  0.69026383    -0.86300
O354        O  0.34313237  0.83543051  0.68743383    -0.83400
C355        C  0.36724953  0.84913327  0.69231151     0.97100
O356        O  0.38656843  0.85070023  0.67188201    -0.83400
O357        O  0.41967528  0.83486386  0.62245155    -0.86000
C358        C  0.43573933  0.81242335  0.62894626     1.01700
O359        O  0.42389521  0.78721773  0.63256046    -0.78800
O360        O  0.38287498  0.74804527  0.65468397    -0.79000
C361        C  0.37993001  0.75420482  0.68229348     1.01600
O362        O  0.32564054  0.75859564  0.64720765    -0.86300
O363        O  0.30812515  0.81613333  0.63774982    -0.83400
C364        C  0.30880790  0.84344027  0.63137345     0.97200
O365        O  0.33305653  0.85821346  0.63356398    -0.83400
O366        O  0.36673111  0.83870258  0.58574154    -0.86000
C367        C  0.37720350  0.81861746  0.56881779     1.01600
O368        O  0.38906294  0.79531195  0.57944992    -0.78800
O369        O  0.34511460  0.75936626  0.60264192    -0.79000
C370        C  0.32500449  0.75064282  0.62024906     1.01600
Cr371      Cr  0.33829944  0.79783099  0.66363168     1.93700
Cr372      Cr  0.37580194  0.84287694  0.62907503     1.93200
Cr373      Cr  0.38392275  0.77483625  0.61864509     1.39100
O374        O  0.36627844  0.80525747  0.63686610    -1.24100
O375        O  0.20131605  0.67837056  0.63228457    -0.86300
O376        O  0.14342478  0.67564461  0.65467449    -0.83400
C377        C  0.13031929  0.67809325  0.62988913     0.97100
O378        O  0.12778474  0.65558223  0.61311927    -0.83400
O379        O  0.14649152  0.60537333  0.58333875    -0.86000
C380        C  0.16854232  0.61338560  0.56742848     1.01700
O381        O  0.19335195  0.61971200  0.57935472    -0.78800
O382        O  0.23265576  0.64277876  0.62040267    -0.79000
C383        C  0.22637284  0.67039492  0.62197198     1.01600
O384        O  0.22024816  0.63744636  0.67698822    -0.86300
O385        O  0.16290468  0.62921913  0.69356713    -0.83400
C386        C  0.13621358  0.62047391  0.69302842     0.97200
O387        O  0.12127075  0.62045246  0.66879291    -0.83400
O388        O  0.14370939  0.57163240  0.63826322    -0.86000
C389        C  0.16409604  0.55531963  0.62739634     1.01600
O390        O  0.18611543  0.56696730  0.61409069    -0.78800
O391        O  0.22078639  0.59216834  0.65873484    -0.79000
C392        C  0.22859207  0.61060772  0.67864210     1.01600
Cr393      Cr  0.18126847  0.65311774  0.66229214     1.93700
Cr394      Cr  0.13741093  0.61412429  0.62663869     1.93200
Cr395      Cr  0.20585142  0.60663822  0.61934282     1.39100
O396        O  0.17471201  0.62443331  0.63597067    -1.24100
O397        O  0.82118606  0.83818198  0.72012947    -0.86300
O398        O  0.80704526  0.84989889  0.66228585    -0.83400
C399        C  0.80861000  0.86054707  0.63637137     0.97100
O400        O  0.83352445  0.86123828  0.62252294    -0.83400
O401        O  0.86492018  0.90771048  0.64814625    -0.86000
C402        C  0.87435214  0.92298601  0.66997144     1.01700
O403        O  0.88462460  0.91060912  0.69308308    -0.78800
O404        O  0.83824717  0.88349355  0.72361865    -0.79000
C405        C  0.81806873  0.86461875  0.72929521     1.01600
O406        O  0.86689045  0.79829945  0.70066009    -0.86300
O407        O  0.84568777  0.80441578  0.64219544    -0.83400
C408        C  0.87059507  0.80193230  0.62938821     0.97200
O409        O  0.88848415  0.82358976  0.62964681    -0.83400
O410        O  0.91833174  0.87199031  0.65214614    -0.86000
C411        C  0.93306668  0.86368444  0.67486322     1.01600
O412        O  0.92009655  0.85781559  0.69916881    -0.78800
O413        O  0.87727083  0.83241819  0.73420560    -0.79000
C414        C  0.87698431  0.80522447  0.72614162     1.01600
Cr415      Cr  0.83740394  0.82480938  0.68087628     1.93700
Cr416      Cr  0.87537169  0.86508668  0.64076268     1.93200
Cr417      Cr  0.87889682  0.86993938  0.70994208     1.39100
O418        O  0.86406032  0.85359065  0.67705101    -1.24100
O419        O  0.85302612  0.71596635  0.82417693    -0.86300
O420        O  0.86157990  0.65836371  0.80871878    -0.83400
C421        C  0.87121120  0.63199695  0.80975325     0.97100
O422        O  0.87146902  0.61781499  0.83436442    -0.83400
O423        O  0.91855373  0.64176544  0.86636305    -0.86000
C424        C  0.93437312  0.66213305  0.87790969     1.01700
O425        O  0.92199560  0.68432022  0.89036272    -0.78800
O426        O  0.89786550  0.71713638  0.84374836    -0.79000
C427        C  0.87997757  0.72423444  0.82313000     1.01600
O428        O  0.81068923  0.69811567  0.86832994    -0.86300
O429        O  0.81429966  0.63993446  0.84668878    -0.83400
C430        C  0.81158743  0.62634396  0.87107422     0.97200
O431        O  0.83347669  0.62493014  0.88878789    -0.83400
O432        O  0.88198721  0.64522603  0.92034444    -0.86000
C433        C  0.87312857  0.66761816  0.93559872     1.01600
O434        O  0.86771631  0.69208145  0.92289666    -0.78800
O435        O  0.84572275  0.72995947  0.88025408    -0.79000
C436        C  0.81815008  0.72334741  0.87846755     1.01600
Cr437      Cr  0.83694386  0.67750663  0.83922366     1.93700
Cr438      Cr  0.87551171  0.63504508  0.87664840     1.93200
Cr439      Cr  0.88211421  0.70341686  0.88302236     1.39100
O440        O  0.86503138  0.67182538  0.86640636    -1.24100
O441        O  0.72267808  0.81835023  0.85301428    -0.86300
O442        O  0.66608022  0.80065977  0.86624202    -0.83400
C443        C  0.63937848  0.80079450  0.87525637     0.97100
O444        O  0.62402331  0.82480388  0.87454202    -0.83400
O445        O  0.64839038  0.85801648  0.92046714    -0.86000
C446        C  0.66906835  0.87003313  0.93550471     1.01700
O447        O  0.69024073  0.88349486  0.92234447    -0.78800
O448        O  0.72572324  0.83962226  0.89694485    -0.79000
C449        C  0.73321102  0.81901746  0.87913922     1.01600
O450        O  0.69916559  0.86007597  0.81122159    -0.86300
O451        O  0.64258324  0.83589326  0.81907451    -0.83400
C452        C  0.62924743  0.86035777  0.81530257     0.97200
O453        O  0.62820544  0.87901381  0.83641374    -0.83400
O454        O  0.64781184  0.91151370  0.88483919    -0.86000
C455        C  0.66858554  0.92776455  0.87450962     1.01600
O456        O  0.69346324  0.91654314  0.86728894    -0.78800
O457        O  0.73260086  0.87547892  0.84362943    -0.79000
C458        C  0.72434584  0.87166541  0.81673866     1.01600
Cr459      Cr  0.68211925  0.83088432  0.83932120     1.93700
Cr460      Cr  0.63964631  0.86766152  0.87811925     1.93200
Cr461      Cr  0.70811002  0.87749369  0.88155424     1.39100
O462        O  0.67661918  0.85874559  0.86663932    -1.24100
O463        O  0.79701218  0.62227945  0.68990650    -0.86300
O464        O  0.85435966  0.64601877  0.68436133    -0.83400
C465        C  0.86813107  0.62175634  0.68799741     0.97100
O466        O  0.86979252  0.60329971  0.66673311    -0.83400
O467        O  0.85141182  0.57102818  0.61759645    -0.86000
C468        C  0.83014514  0.55492498  0.62711949     1.01700
O469        O  0.80512050  0.56635368  0.63352931    -0.78800
O470        O  0.76508492  0.60747760  0.65583730    -0.79000
C471        C  0.77212738  0.61055397  0.68315320     1.01600
O472        O  0.77589320  0.66454417  0.64746957    -0.86300
O473        O  0.83311587  0.68190499  0.63650097    -0.83400
C474        C  0.85989447  0.68148424  0.62765210     0.97200
O475        O  0.87516994  0.65749278  0.62894982    -0.83400
O476        O  0.85214103  0.62481546  0.58215670    -0.86000
C477        C  0.83237880  0.61226060  0.56637017     1.01600
O478        O  0.81051418  0.59922987  0.57879773    -0.78800
O479        O  0.77435354  0.64361315  0.60322151    -0.79000
C480        C  0.76594297  0.66379387  0.62114107     1.01600
Cr481      Cr  0.81573461  0.65153735  0.66259826     1.93700
Cr482      Cr  0.85948570  0.61485144  0.62476512     1.93200
Cr483      Cr  0.79117449  0.60549215  0.61893951     1.39100
O484        O  0.82217178  0.62387848  0.63520294    -1.24100
O485        O  0.62941182  0.68036807  0.79854796    -0.86300
O486        O  0.65211094  0.67634804  0.85672762    -0.83400
C487        C  0.62767483  0.67942311  0.87030170     0.97100
O488        O  0.60963799  0.65786863  0.87118635    -0.83400
O489        O  0.57891627  0.60801509  0.85210628    -0.86000
C490        C  0.56315468  0.61381356  0.82925675     1.01700
O491        O  0.57555499  0.61864794  0.80433947    -0.78800
O492        O  0.61674960  0.64484387  0.76710705    -0.79000
C493        C  0.61836871  0.67242318  0.77372319     1.01600
O494        O  0.67459241  0.64033393  0.77927354    -0.86300
O495        O  0.69013300  0.62987544  0.83716489    -0.83400
C496        C  0.68952406  0.62070268  0.86368252     0.97200
O497        O  0.66498419  0.62064049  0.87824868    -0.83400
O498        O  0.63302221  0.57273339  0.85578480    -0.86000
C499        C  0.62407187  0.55619037  0.83463270     1.01600
O500        O  0.61355312  0.56744586  0.81097285    -0.78800
O501        O  0.65753163  0.59493811  0.77709528    -0.79000
C502        C  0.67734160  0.61384731  0.77026630     1.01600
Cr503      Cr  0.65923422  0.65445705  0.81858624     1.93700
Cr504      Cr  0.62248230  0.61578421  0.86145358     1.93200
Cr505      Cr  0.61705794  0.60782458  0.79247141     1.39100
O506        O  0.63264959  0.62574841  0.82425559    -1.24100
O507        O  0.68869360  0.78322608  0.63454066    -0.86300
O508        O  0.68563478  0.84181647  0.65553156    -0.83400
C509        C  0.68769760  0.85588367  0.63126869     0.97100
O510        O  0.66545085  0.85763842  0.61406600    -0.83400
O511        O  0.61595436  0.83831866  0.58338546    -0.86000
C512        C  0.62430018  0.81623167  0.56751901     1.01700
O513        O  0.63084773  0.79170179  0.57967578    -0.78800
O514        O  0.65277789  0.75268784  0.62148708    -0.79000
C515        C  0.68044932  0.75853104  0.62358449     1.01600
O516        O  0.64599038  0.76600792  0.67887310    -0.86300
O517        O  0.63826507  0.82379258  0.69437326    -0.83400
C518        C  0.62890398  0.85025518  0.69355390     0.97200
O519        O  0.62896515  0.86465028  0.66911874    -0.83400
O520        O  0.58118628  0.84116917  0.63822115    -0.86000
C521        C  0.56523551  0.82091466  0.62676735     1.01600
O522        O  0.57714471  0.79907486  0.61336072    -0.78800
O523        O  0.60139826  0.76492467  0.65852098    -0.79000
C524        C  0.61924583  0.75692315  0.67882594     1.01600
Cr525      Cr  0.66257157  0.80441705  0.66360688     1.93700
Cr526      Cr  0.62380575  0.84774251  0.62697401     1.93200
Cr527      Cr  0.61685221  0.77958155  0.61954878     1.39100
O528        O  0.63433668  0.81068597  0.63659349    -1.24100
O529        O  0.87121704  0.28768643  0.18931167    -0.86300
O530        O  0.84817108  0.34475073  0.18516927    -0.83400
C531        C  0.87338801  0.35664590  0.18896716     0.97100
O532        O  0.89097106  0.35891628  0.16715738    -0.83400
O533        O  0.92203441  0.34095315  0.11751406    -0.86000
C534        C  0.93793849  0.31886689  0.12542934     1.01700
O535        O  0.92594361  0.29434431  0.13217059    -0.78800
O536        O  0.88441806  0.25551724  0.15491742    -0.79000
C537        C  0.88239703  0.26274369  0.18227974     1.01600
O538        O  0.82751373  0.26735865  0.14705352    -0.86300
O539        O  0.81069060  0.32456172  0.13781179    -0.83400
C540        C  0.81133330  0.35124710  0.12931322     0.97200
O541        O  0.83573126  0.36598590  0.13002468    -0.83400
O542        O  0.86797995  0.34341028  0.08241080    -0.86000
C543        C  0.87903553  0.32275005  0.06656476     1.01600
O544        O  0.89192304  0.30058534  0.07836335    -0.78800
O545        O  0.84736995  0.26623796  0.10255848    -0.79000
C546        C  0.82667654  0.25888725  0.12012167     1.01600
Cr547      Cr  0.84149065  0.30663957  0.16287555     1.93700
Cr548      Cr  0.87837544  0.34985099  0.12517024     1.93200
Cr549      Cr  0.88617527  0.28152608  0.11822976     1.39100
O550        O  0.86871192  0.31276888  0.13504762    -1.24100
O551        O  0.78078197  0.34225991  0.32185383    -0.86300
O552        O  0.83940265  0.34967431  0.30912283    -0.83400
C553        C  0.86612381  0.35800725  0.31122873     0.97100
O554        O  0.87910799  0.35932694  0.33660153    -0.83400
O555        O  0.85530665  0.40875229  0.36491047    -0.86000
C556        C  0.83417875  0.42563931  0.37319188     1.01700
O557        O  0.81040319  0.41511053  0.38418786    -0.78800
O558        O  0.77883420  0.38803148  0.33852235    -0.79000
C559        C  0.77292688  0.36904228  0.31844532     1.01600
O560        O  0.79715877  0.30356680  0.36954444    -0.86300
O561        O  0.85562795  0.30488632  0.35029051    -0.83400
C562        C  0.86612861  0.30233811  0.37618967     0.97200
O563        O  0.86769220  0.32504990  0.39278851    -0.83400
O564        O  0.84802473  0.37622508  0.42012613    -0.86000
C565        C  0.82451457  0.36983640  0.43471907     1.01600
O566        O  0.80048597  0.36384161  0.42112295    -0.78800
O567        O  0.76437800  0.33887793  0.37807584    -0.79000
C568        C  0.77154754  0.31149588  0.37838894     1.01600
Cr569      Cr  0.81864978  0.32726571  0.33978128     1.93700
Cr570      Cr  0.85997323  0.36648131  0.37763743     1.93200
Cr571      Cr  0.79103833  0.37516360  0.37946973     1.39100
O572        O  0.82333832  0.35673580  0.36562956    -1.24100
O573        O  0.81136250  0.12574171  0.29683228    -0.86300
O574        O  0.81529363  0.14498786  0.35565036    -0.83400
C575        C  0.81193119  0.11971129  0.36728142     0.97100
O576        O  0.83343701  0.10158091  0.36759413    -0.83400
O577        O  0.88299792  0.07176503  0.34798037    -0.86000
C578        C  0.87514652  0.05698949  0.32503479     1.01700
O579        O  0.87032609  0.07012816  0.30064381    -0.78800
O580        O  0.84615273  0.11343938  0.26462681    -0.79000
C581        C  0.81861212  0.11578355  0.27145563     1.01600
O582        O  0.85301513  0.17054758  0.28007618    -0.86300
O583        O  0.86272773  0.18334090  0.33843590    -0.83400
C584        C  0.87063083  0.18119063  0.36525079     0.97200
O585        O  0.87016379  0.15602268  0.37838207    -0.83400
O586        O  0.91823826  0.12525086  0.35435950    -0.86000
C587        C  0.93464490  0.11610409  0.33325266     1.01600
O588        O  0.92342869  0.10542018  0.30953679    -0.78800
O589        O  0.89771921  0.15098677  0.27715707    -0.79000
C590        C  0.87964919  0.17172963  0.27093622     1.01600
Cr591      Cr  0.83771983  0.15389754  0.31821585     1.93700
Cr592      Cr  0.87539420  0.11462137  0.35939228     1.93200
Cr593      Cr  0.88314151  0.11110754  0.29054740     1.39100
O594        O  0.86574301  0.12641454  0.32274701    -1.24100
O595        O  0.70470392  0.18254954  0.12569322    -0.86300
O596        O  0.64830324  0.17803723  0.14966186    -0.83400
C597        C  0.63508189  0.18001827  0.12493273     0.97100
O598        O  0.63356922  0.15750741  0.10807403    -0.83400
O599        O  0.65227270  0.10628410  0.07971665    -0.86000
C600        C  0.67353852  0.11427992  0.06284310     1.01700
O601        O  0.69841428  0.12199812  0.07376375    -0.78800
O602        O  0.73779580  0.14889405  0.11297526    -0.79000
C603        C  0.73002179  0.17615571  0.11518652     1.01600
O604        O  0.72711055  0.14405567  0.17099084    -0.86300
O605        O  0.66995921  0.13398772  0.18952350    -0.83400
C606        C  0.64291769  0.12618965  0.18941779     0.97200
O607        O  0.62838087  0.12426460  0.16497948    -0.83400
O608        O  0.65169506  0.07505688  0.13563157    -0.86000
C609        C  0.67234091  0.05880777  0.12516746     1.01600
O610        O  0.69451572  0.07010112  0.11162822    -0.78800
O611        O  0.73009570  0.09873422  0.15305017    -0.79000
C612        C  0.73698710  0.11776440  0.17269922     1.01600
Cr613      Cr  0.68706079  0.15743127  0.15693351     1.93700
Cr614      Cr  0.64416105  0.11671068  0.12280513     1.93200
Cr615      Cr  0.71279791  0.11111052  0.11399974     1.39100
O616        O  0.68132898  0.12797404  0.13130089    -1.24100
O617        O  0.65382785  0.31495877  0.22166685    -0.86300
O618        O  0.63992331  0.29899287  0.16460242    -0.83400
C619        C  0.63021488  0.30006681  0.13826025     0.97100
O620        O  0.63085202  0.32441657  0.12368430    -0.83400
O621        O  0.58406067  0.35527019  0.14843974    -0.86000
C622        C  0.56841598  0.36495631  0.16985532     1.01700
O623        O  0.58070680  0.37688894  0.19244797    -0.78800
O624        O  0.60850014  0.33252130  0.22499753    -0.79000
C625        C  0.62741936  0.31248545  0.23110700     1.01600
O626        O  0.69339644  0.35922637  0.19947982    -0.86300
O627        O  0.68569035  0.33598278  0.14225569    -0.83400
C628        C  0.68927205  0.36106315  0.13040937     0.97200
O629        O  0.66794486  0.37947135  0.13045530    -0.83400
O630        O  0.61851645  0.40976735  0.15103220    -0.86000
C631        C  0.62713459  0.42535026  0.17312409     1.01600
O632        O  0.63362688  0.41289062  0.19752251    -0.78800
O633        O  0.66020569  0.37152430  0.23354640    -0.79000
C634        C  0.68723058  0.37045601  0.22471702     1.01600
Cr635      Cr  0.66623274  0.32933703  0.18159215     1.93700
Cr636      Cr  0.62630437  0.36650886  0.14090162     1.93200
Cr637      Cr  0.62180509  0.37230762  0.20973955     1.39100
O638        O  0.63777162  0.35623350  0.17737442    -1.24100
O639        O  0.67689977  0.21449702  0.35150869    -0.86300
O640        O  0.69194032  0.15687827  0.36395899    -0.83400
C641        C  0.69057052  0.13004566  0.37190692     0.97100
O642        O  0.66575234  0.11606900  0.37081415    -0.83400
O643        O  0.63535107  0.13986861  0.41862962    -0.86000
C644        C  0.62606833  0.16103711  0.43494960     1.01700
O645        O  0.61468810  0.18423087  0.42342466    -0.78800
O646        O  0.65897536  0.21757002  0.39662258    -0.79000
C647        C  0.67898246  0.22399064  0.37788195     1.01600
O648        O  0.63252449  0.19407461  0.31147818    -0.86300
O649        O  0.65461228  0.13642533  0.31739676    -0.83400
C650        C  0.62886513  0.12638946  0.31259099     0.97200
O651        O  0.61042546  0.12550555  0.33388332    -0.83400
O652        O  0.58077609  0.14421430  0.38482250    -0.86000
C653        C  0.56525080  0.16709557  0.37872427     1.01600
O654        O  0.57787438  0.19123538  0.37169652    -0.78800
O655        O  0.61989904  0.22741976  0.34531727    -0.79000
C656        C  0.62187716  0.21941404  0.31808082     1.01600
Cr657      Cr  0.66193798  0.17504638  0.33808560     1.93700
Cr658      Cr  0.62383685  0.13387088  0.37610028     1.93200
Cr659      Cr  0.61900068  0.20268050  0.38305336     1.39100
O660        O  0.63473162  0.17055254  0.36614557    -1.24100
O661        O  0.86035484  0.81448203  0.27645479    -0.86300
O662        O  0.87227956  0.79905571  0.33348802    -0.83400
C663        C  0.87917002  0.80033602  0.36062497     0.97100
O664        O  0.87635518  0.82485503  0.37500848    -0.83400
O665        O  0.92206417  0.85888354  0.35093164    -0.86000
C666        C  0.93680985  0.87227629  0.33100774     1.01700
O667        O  0.92352957  0.88438126  0.30911258    -0.78800
O668        O  0.90253300  0.83891571  0.27338532    -0.79000
C669        C  0.88655104  0.81693317  0.26615086     1.01600
O670        O  0.81494332  0.85381154  0.29734036    -0.86300
O671        O  0.82157519  0.83349452  0.35422181    -0.83400
C672        C  0.81593916  0.85890901  0.36520239     0.97200
O673        O  0.83661729  0.87785781  0.36715508    -0.83400
O674        O  0.88472837  0.91113319  0.34880927    -0.86000
C675        C  0.87447285  0.92672338  0.32752485     1.01600
O676        O  0.86659891  0.91409463  0.30354161    -0.78800
O677        O  0.84668362  0.87073806  0.26432116    -0.79000
C678        C  0.82002386  0.86470848  0.27209059     1.01600
Cr679      Cr  0.84408443  0.82727227  0.31587381     1.93700
Cr680      Cr  0.87913361  0.86732914  0.35812990     1.93200
Cr681      Cr  0.88381459  0.87575015  0.28993022     1.39100
O682        O  0.86937191  0.85677583  0.32125338    -1.24100
O683        O  0.81365028  0.69892265  0.13488156    -0.86300
O684        O  0.81878131  0.64158460  0.15593680    -0.83400
C685        C  0.81514252  0.62942389  0.13077404     0.97100
O686        O  0.83705506  0.62696367  0.11325870    -0.83400
O687        O  0.88575356  0.64576327  0.08170665    -0.86000
C688        C  0.87615055  0.66715921  0.06590212     1.01700
O689        O  0.86931158  0.69167957  0.07817965    -0.78800
O690        O  0.84716270  0.73098652  0.12015020    -0.79000
C691        C  0.81989890  0.72373275  0.12344524     1.01600
O692        O  0.85690256  0.71851749  0.17775251    -0.86300
O693        O  0.86682852  0.66091197  0.19333090    -0.83400
C694        C  0.87513635  0.63414215  0.19231363     0.97200
O695        O  0.87470596  0.61983321  0.16764387    -0.83400
O696        O  0.92195577  0.64406846  0.13525162    -0.86000
C697        C  0.93728099  0.66418999  0.12277631     1.01600
O698        O  0.92442759  0.68630889  0.11076430    -0.78800
O699        O  0.90053484  0.72131662  0.15580305    -0.79000
C700        C  0.88346858  0.72804353  0.17727306     1.01600
Cr701      Cr  0.84107400  0.67946468  0.16331681     1.93700
Cr702      Cr  0.87900852  0.63677133  0.12538263     1.93200
Cr703      Cr  0.88422593  0.70511950  0.11754751     1.39100
O704        O  0.86843580  0.67375204  0.13545605    -1.24100
O705        O  0.70114548  0.86070250  0.18973299    -0.86300
O706        O  0.64479832  0.83694728  0.18237848    -0.83400
C707        C  0.63309709  0.86197836  0.18751872     0.97100
O708        O  0.63129527  0.88051545  0.16650052    -0.83400
O709        O  0.65034338  0.91310178  0.11806286    -0.86000
C710        C  0.67233335  0.92916823  0.12620056     1.01700
O711        O  0.69686117  0.91717355  0.13345611    -0.78800
O712        O  0.73488276  0.87519643  0.15734407    -0.79000
C713        C  0.72655653  0.87150630  0.18418738     1.01600
O714        O  0.72418898  0.81889988  0.14802458    -0.86300
O715        O  0.66769668  0.80150677  0.13465776    -0.83400
C716        C  0.64083362  0.80191728  0.12632222     0.97200
O717        O  0.62578638  0.82621831  0.12722910    -0.83400
O718        O  0.64931551  0.86018710  0.08101902    -0.86000
C719        C  0.67011256  0.87210228  0.06602435     1.01600
O720        O  0.69235815  0.88364914  0.07917400    -0.78800
O721        O  0.72697433  0.83892123  0.10382423    -0.79000
C722        C  0.73411452  0.81844732  0.12172564     1.01600
Cr723      Cr  0.68394331  0.83164453  0.16173704     1.93700
Cr724      Cr  0.64161196  0.86921570  0.12408762     1.93200
Cr725      Cr  0.71035300  0.87744815  0.11951642     1.39100
O726        O  0.67859746  0.85955872  0.13469587    -1.24100
O727        O  0.64882883  0.76377187  0.32691577    -0.86300
O728        O  0.63808984  0.82075999  0.30984473    -0.83400
C729        C  0.62992110  0.84761678  0.31045013     0.97100
O730        O  0.63087638  0.86255054  0.33482077    -0.83400
O731        O  0.58417259  0.83960938  0.36833013    -0.86000
C732        C  0.56879026  0.81937043  0.38042998     1.01700
O733        O  0.58172915  0.79774847  0.39320136    -0.78800
O734        O  0.60479812  0.76253115  0.34800512    -0.79000
C735        C  0.62217270  0.75447338  0.32733494     1.01600
O736        O  0.69222197  0.78485065  0.36871228    -0.86300
O737        O  0.68645008  0.84173694  0.34571206    -0.83400
C738        C  0.69084563  0.85452126  0.37044322     0.97200
O739        O  0.66958562  0.85663107  0.38882661    -0.83400
O740        O  0.62121613  0.83796348  0.42180623    -0.86000
C741        C  0.63022985  0.81606614  0.43748950     1.01600
O742        O  0.63638730  0.79151017  0.42520303    -0.78800
O743        O  0.65851594  0.75281711  0.38333975    -0.79000
C744        C  0.68582572  0.76004990  0.38016219     1.01600
Cr745      Cr  0.66445933  0.80336655  0.33995539     1.93700
Cr746      Cr  0.62726930  0.84670548  0.37769548     1.93200
Cr747      Cr  0.62147948  0.77854459  0.38605840     1.39100
O748        O  0.63747450  0.80963758  0.36800375    -1.24100
O749        O  0.78273599  0.66613247  0.35314983    -0.86300
O750        O  0.83946061  0.68180231  0.36717952    -0.83400
C751        C  0.86626813  0.68071076  0.37560462     0.97100
O752        O  0.88067968  0.65609175  0.37470575    -0.83400
O753        O  0.85483771  0.62407863  0.42104508    -0.86000
C754        C  0.83328923  0.61298020  0.43567224     1.01700
O755        O  0.81225978  0.59979565  0.42203194    -0.78800
O756        O  0.77860944  0.64506443  0.39685080    -0.79000
C757        C  0.77208338  0.66590013  0.37917173     1.01600
O758        O  0.80501608  0.62366999  0.31137247    -0.86300
O759        O  0.86202832  0.64549095  0.31979523    -0.83400
C760        C  0.87300363  0.62005696  0.31495296     0.97200
O761        O  0.87406813  0.60157611  0.33612209    -0.83400
O762        O  0.85375427  0.57039947  0.38505722    -0.86000
C763        C  0.83220909  0.55462818  0.37541331     1.01600
O764        O  0.80813210  0.56678740  0.36712312    -0.78800
O765        O  0.77096487  0.60939149  0.34339560    -0.79000
C766        C  0.77984766  0.61213544  0.31666169     1.01600
Cr767      Cr  0.82272221  0.65216952  0.33979083     1.93700
Cr768      Cr  0.86352599  0.61381275  0.37832184     1.93200
Cr769      Cr  0.79488693  0.60652136  0.38137190     1.39100
O770        O  0.82702418  0.62410484  0.36685111    -1.24100
O771        O  0.69312386  0.62719724  0.20190949    -0.86300
O772        O  0.68478080  0.64847475  0.14534217    -0.83400
C773        C  0.69036541  0.62309089  0.13447601     0.97100
O774        O  0.66980842  0.60394219  0.13369543    -0.83400
O775        O  0.62215154  0.57084082  0.15337306    -0.86000
C776        C  0.63143502  0.55566830  0.17542685     1.01700
O777        O  0.63798542  0.56854021  0.19960590    -0.78800
O778        O  0.66202297  0.61154200  0.23613624    -0.79000
C779        C  0.68869628  0.61565439  0.22700707     1.01600
O780        O  0.65021299  0.66843472  0.22459494    -0.86300
O781        O  0.63561875  0.68313352  0.16750768    -0.83400
C782        C  0.62798629  0.68167397  0.14055089     0.97200
O783        O  0.62977322  0.65692810  0.12636276    -0.83400
O784        O  0.58438800  0.62283136  0.15098590    -0.86000
C785        C  0.56964287  0.61096794  0.17186932     1.01600
O786        O  0.58280731  0.60076617  0.19477793    -0.78800
O787        O  0.60705070  0.64625139  0.22892632    -0.79000
C788        C  0.62416335  0.66767453  0.23536308     1.01600
Cr789      Cr  0.66398859  0.65467763  0.18447610     1.93700
Cr790      Cr  0.62738239  0.61454676  0.14357444     1.93200
Cr791      Cr  0.62344381  0.60810208  0.21241976     1.39100
O792        O  0.63780965  0.62567428  0.18019580    -1.24100
O793        O  0.22749486  0.31800028  0.35566806    -0.86300
O794        O  0.17076933  0.30003801  0.36941144    -0.83400
C795        C  0.14366916  0.30014880  0.37705254     0.97100
O796        O  0.12813294  0.32380299  0.37418815    -0.83400
O797        O  0.15190060  0.35776171  0.41987413    -0.86000
C798        C  0.17180505  0.37131298  0.43468517     1.01700
O799        O  0.19251315  0.38534347  0.42124263    -0.78800
O800        O  0.23023840  0.34278927  0.39782757    -0.79000
C801        C  0.23897842  0.32184309  0.38115709     1.01600
O802        O  0.20319690  0.35632583  0.31145392    -0.86300
O803        O  0.14730072  0.33332129  0.31983810    -0.83400
C804        C  0.13528448  0.35824040  0.31442287     0.97200
O805        O  0.13289385  0.37718591  0.33522176    -0.83400
O806        O  0.15026101  0.41057817  0.38422493    -0.86000
C807        C  0.17047770  0.42755286  0.37418952     1.01600
O808        O  0.19483097  0.41669983  0.36497064    -0.78800
O809        O  0.23548503  0.37600933  0.34247592    -0.79000
C810        C  0.22753706  0.36957096  0.31589169     1.01600
Cr811      Cr  0.18664302  0.32893762  0.34096761     1.93700
Cr812      Cr  0.14320440  0.36668148  0.37741692     1.93200
Cr813      Cr  0.21099027  0.37879809  0.38062098     1.39100
O814        O  0.18040303  0.35817662  0.36662761    -1.24100
O815        O  0.31329672  0.35656598  0.20085498    -0.86300
O816        O  0.32153403  0.33436541  0.14354840    -0.83400
C817        C  0.31753063  0.36004479  0.13319400     0.97100
O818        O  0.33909452  0.37809530  0.13317357    -0.83400
O819        O  0.38902347  0.40761072  0.15373473    -0.86000
C820        C  0.38118969  0.42297770  0.17627400     1.01700
O821        O  0.37363600  0.41043612  0.20024055    -0.78800
O822        O  0.34587922  0.36913350  0.23536839    -0.79000
C823        C  0.31901197  0.36783913  0.22614333     1.01600
O824        O  0.35230146  0.31172996  0.22307521    -0.86300
O825        O  0.36719388  0.29673630  0.16601784    -0.83400
C826        C  0.37664361  0.29803635  0.13959722     0.97200
O827        O  0.37620977  0.32268744  0.12549830    -0.83400
O828        O  0.42309644  0.35294559  0.15091831    -0.86000
C829        C  0.43848611  0.36169348  0.17298195     1.01600
O830        O  0.42598677  0.37352452  0.19552411    -0.78800
O831        O  0.39723027  0.33001675  0.22822879    -0.79000
C832        C  0.37801214  0.31046767  0.23453269     1.01600
Cr833      Cr  0.34063478  0.32689494  0.18302024     1.93700
Cr834      Cr  0.38081745  0.36454289  0.14326901     1.93200
Cr835      Cr  0.38463928  0.36961928  0.21229337     1.39100
O836        O  0.36914713  0.35379183  0.17957053    -1.24100
O837        O  0.36379162  0.19846145  0.32086028    -0.86300
O838        O  0.34341141  0.14047077  0.32462043    -0.83400
C839        C  0.36894403  0.12967467  0.31927377     0.97100
O840        O  0.38795126  0.12843850  0.33995895    -0.83400
O841        O  0.41978996  0.14567101  0.38950847    -0.86000
C842        C  0.43459817  0.16867026  0.38221347     1.01700
O843        O  0.42139044  0.19309294  0.37809574    -0.78800
O844        O  0.37855801  0.23005974  0.35534443    -0.79000
C845        C  0.37546876  0.22317757  0.32795406     1.01600
O846        O  0.32125698  0.21698011  0.36393819    -0.86300
O847        O  0.30705223  0.15829310  0.37426761    -0.83400
C848        C  0.30925324  0.13096243  0.38035156     0.97200
O849        O  0.33433317  0.11752747  0.37771262    -0.83400
O850        O  0.36643786  0.13951127  0.42519103    -0.86000
C851        C  0.37599376  0.16005210  0.44195092     1.01600
O852        O  0.38695780  0.18385628  0.43148870    -0.78800
O853        O  0.34227373  0.21898441  0.40788467    -0.79000
C854        C  0.32288768  0.22820946  0.38974985     1.01600
Cr855      Cr  0.33592742  0.17799171  0.34795778     1.93700
Cr856      Cr  0.37625254  0.13542216  0.38241579     1.93200
Cr857      Cr  0.38106274  0.20391023  0.39199015     1.39100
O858        O  0.36454108  0.17246812  0.37449695    -1.24100
O859        O  0.13339279  0.18177201  0.30637897    -0.86300
O860        O  0.15580256  0.17422389  0.36398746    -0.83400
C861        C  0.13092897  0.17882716  0.37628898     0.97100
O862        O  0.11170396  0.15835369  0.37641919    -0.83400
O863        O  0.07954236  0.11006623  0.35650430    -0.86000
C864        C  0.06422064  0.11836641  0.33414288     1.01700
O865        O  0.07670720  0.12385863  0.30949626    -0.78800
O866        O  0.11929642  0.14860273  0.27308193    -0.79000
C867        C  0.12243557  0.17576206  0.28104326     1.01600
O868        O  0.17594374  0.14033970  0.28517181    -0.86300
O869        O  0.19117028  0.12643938  0.34205545    -0.83400
C870        C  0.19009022  0.11749340  0.36856300     0.97200
O871        O  0.16570932  0.11921186  0.38331332    -0.83400
O872        O  0.13245837  0.07332976  0.35961310    -0.86000
C873        C  0.12145548  0.05778952  0.33875773     1.01600
O874        O  0.11131068  0.07011450  0.31539488    -0.78800
O875        O  0.15685906  0.09580236  0.28204576    -0.79000
C876        C  0.17747475  0.11396132  0.27570874     1.01600
Cr877      Cr  0.16186074  0.15372487  0.32494377     1.93700
Cr878      Cr  0.12317761  0.11618429  0.36634327     1.93200
Cr879      Cr  0.11726227  0.11064707  0.29741122     1.39100
O880        O  0.13379883  0.12657204  0.32958516    -1.24100
O881        O  0.29311673  0.12705553  0.19348921    -0.86300
O882        O  0.35139061  0.14715590  0.18916305    -0.83400
C883        C  0.36280405  0.12202977  0.19462964     0.97100
O884        O  0.36467324  0.10274306  0.17411483    -0.83400
O885        O  0.34745585  0.07008588  0.12492785    -0.86000
C886        C  0.32553901  0.05481285  0.13418264     1.01700
O887        O  0.30100972  0.06738897  0.13995126    -0.78800
O888        O  0.26207491  0.11030482  0.15953010    -0.79000
C889        C  0.26880088  0.11427876  0.18670587     1.01600
O890        O  0.27545025  0.16799192  0.14829287    -0.86300
O891        O  0.33419951  0.18214794  0.13872484    -0.83400
C892        C  0.36160297  0.17973637  0.13246984     0.97200
O893        O  0.37487698  0.15483351  0.13539714    -0.83400
O894        O  0.35159320  0.12254893  0.08848606    -0.86000
C895        C  0.33114694  0.11111159  0.07268180     1.01600
O896        O  0.30902272  0.09838757  0.08481941    -0.78800
O897        O  0.27300335  0.14357835  0.10585686    -0.79000
C898        C  0.26514082  0.16512999  0.12222312     1.01600
Cr899      Cr  0.31402290  0.15393920  0.16555179     1.93700
Cr900      Cr  0.35705782  0.11338691  0.13145034     1.93200
Cr901      Cr  0.28876641  0.10627858  0.12370298     1.39100
O902        O  0.31989153  0.12454988  0.13995083    -1.24100
O903        O  0.17788313  0.26431952  0.14901321    -0.86300
O904        O  0.19525748  0.32164703  0.13808266    -0.83400
C905        C  0.19469634  0.34878296  0.13109050     0.97100
O906        O  0.17009784  0.36321825  0.13123238    -0.83400
O907        O  0.13902312  0.33887390  0.08314907    -0.86000
C908        C  0.12736873  0.31812821  0.06774971     1.01700
O909        O  0.11288888  0.29747711  0.08052655    -0.78800
O910        O  0.15540823  0.26151796  0.10565766    -0.79000
C911        C  0.17562936  0.25311670  0.12318625     1.01600
O912        O  0.13562995  0.28642060  0.19153031    -0.86300
O913        O  0.15783817  0.34301528  0.18548521    -0.83400
C914        C  0.13252428  0.35495914  0.18929075     0.97200
O915        O  0.11488600  0.35724013  0.16737111    -0.83400
O916        O  0.08397093  0.33876341  0.11691990    -0.86000
C917        C  0.06752545  0.31740032  0.12549280     1.01600
O918        O  0.07909092  0.29377899  0.13523405    -0.78800
O919        O  0.11954017  0.25403988  0.15865157    -0.79000
C920        C  0.12317063  0.26187588  0.18569224     1.01600
Cr921      Cr  0.16462324  0.30434744  0.16398231     1.93700
Cr922      Cr  0.12771255  0.34707747  0.12559217     1.93200
Cr923      Cr  0.11803483  0.27911638  0.12114227     1.39100
O924        O  0.13685693  0.31014885  0.13658118    -1.24100
O925        O  0.32726873  0.76710665  0.35366907    -0.86300
O926        O  0.31201916  0.82451197  0.36662687    -0.83400
C927        C  0.31309532  0.85129383  0.37494744     0.97100
O928        O  0.33783643  0.86544679  0.37506513    -0.83400
O929        O  0.36796769  0.84210530  0.42353302    -0.86000
C930        C  0.37590177  0.82033074  0.43958513     1.01700
O931        O  0.38733538  0.79708313  0.42803297    -0.78800
O932        O  0.34426045  0.76365255  0.39904992    -0.79000
C933        C  0.32463592  0.75727545  0.37979144     1.01600
O934        O  0.37301029  0.78796534  0.31528298    -0.86300
O935        O  0.35040401  0.84554335  0.32094089    -0.83400
C936        C  0.37592280  0.85675418  0.31751484     0.97200
O937        O  0.39377884  0.85714613  0.33932219    -0.83400
O938        O  0.42287214  0.83810542  0.38997622    -0.86000
C939        C  0.43827646  0.81524502  0.38325235     1.01600
O940        O  0.42562601  0.79104057  0.37646142    -0.78800
O941        O  0.38488455  0.75479140  0.34912311    -0.79000
C942        C  0.38345943  0.76269581  0.32193809     1.01600
Cr943      Cr  0.34276572  0.80675872  0.34129033     1.93700
Cr944      Cr  0.37978310  0.84811997  0.38104246     1.93200
Cr945      Cr  0.38446852  0.77917422  0.38704508     1.39100
O946        O  0.36911922  0.81136151  0.37026820    -1.24100
O947        O  0.17388303  0.84779247  0.27255369    -0.86300
O948        O  0.19318058  0.85536413  0.32992450    -0.83400
C949        C  0.19315332  0.86316188  0.35701249     0.97100
O950        O  0.16925791  0.86213928  0.37254105    -0.83400
O951        O  0.13510990  0.91072310  0.35581250    -0.86000
C952        C  0.12462040  0.92823770  0.33637418     1.01700
O953        O  0.11424163  0.91813716  0.31214845    -0.78800
O954        O  0.15832085  0.89359734  0.27601643    -0.79000
C955        C  0.17726807  0.87489526  0.26654845     1.01600
O956        O  0.13019260  0.80698453  0.29195987    -0.86300
O957        O  0.15711793  0.80737599  0.34852077    -0.83400
C958        C  0.13384697  0.80326351  0.36363906     0.97200
O959        O  0.11510100  0.82416409  0.36627236    -0.83400
O960        O  0.08223620  0.87377467  0.35131275    -0.86000
C961        C  0.06608466  0.87049872  0.32821626     1.01600
O962        O  0.07733375  0.86802217  0.30246730    -0.78800
O963        O  0.11742465  0.84424413  0.26279265    -0.79000
C964        C  0.11841271  0.81642904  0.26807529     1.01600
Cr965      Cr  0.16133535  0.83152002  0.31162174     1.93700
Cr966      Cr  0.12613316  0.86700522  0.35860052     1.93200
Cr967      Cr  0.11824954  0.87950832  0.29066797     1.39100
O968        O  0.13483051  0.85957274  0.32052642    -1.24100
O969        O  0.28216478  0.81509779  0.15246225    -0.86300
O970        O  0.33972853  0.79926044  0.14175388    -0.83400
C971        C  0.36673533  0.80005822  0.13409661     0.97100
O972        O  0.38111780  0.82461459  0.13427172    -0.83400
O973        O  0.35844910  0.85721353  0.08633494    -0.86000
C974        C  0.33798891  0.86862359  0.07042596     1.01700
O975        O  0.31450087  0.87887157  0.08255444    -0.78800
O976        O  0.28093783  0.83313585  0.10739469    -0.79000
C977        C  0.27389822  0.81297606  0.12567353     1.01600
O978        O  0.30175189  0.85882584  0.19406139    -0.86300
O979        O  0.35967864  0.83585232  0.18955507    -0.83400
C980        C  0.37234744  0.86057507  0.19350719     0.97200
O981        O  0.37342111  0.87886850  0.17222643    -0.83400
O982        O  0.35426960  0.91019665  0.12315602    -0.86000
C983        C  0.33160508  0.92536930  0.13109151     1.01600
O984        O  0.30697320  0.91269652  0.13622858    -0.78800
O985        O  0.26942211  0.87109731  0.15945846    -0.79000
C986        C  0.27663466  0.86963278  0.18690488     1.01600
Cr987      Cr  0.32140945  0.82942078  0.16741086     1.93700
Cr988      Cr  0.36420792  0.86684057  0.12978981     1.93200
Cr989      Cr  0.29538867  0.87267057  0.12252673     1.39100
O990        O  0.32713568  0.85646693  0.13956941    -1.24100
O991        O  0.14564530  0.72111572  0.17754872    -0.86300
O992        O  0.13423000  0.66405041  0.19482057    -0.83400
C993        C  0.12703944  0.63690090  0.19408246     0.97100
O994        O  0.13004514  0.62185964  0.17011467    -0.83400
O995        O  0.08336544  0.64392297  0.13669130    -0.86000
C996        C  0.06779757  0.66399372  0.12434952     1.01700
O997        O  0.08041286  0.68519953  0.11060772    -0.78800
O998        O  0.10251834  0.72209027  0.15441516    -0.79000
C999        C  0.11930343  0.73099422  0.17517990     1.01600
O1000       O  0.19016639  0.69919037  0.13745121    -0.86300
O1001       O  0.18450886  0.64287120  0.16116809    -0.83400
C1002       C  0.19002992  0.63005660  0.13663916     0.97200
O1003       O  0.16946323  0.62781081  0.11734545    -0.83400
O1004       O  0.11974735  0.64453522  0.08374824    -0.86000
C1005       C  0.12864722  0.66596608  0.06773039     1.01600
O1006       O  0.13655025  0.69019069  0.07962874    -0.78800
O1007       O  0.15696690  0.73068783  0.12024412    -0.79000
C1008       C  0.18408129  0.72325669  0.12421310     1.01600
Cr1009     Cr  0.16179221  0.68122540  0.16568977     1.93700
Cr1010     Cr  0.12651588  0.63700606  0.12761825     1.93200
Cr1011     Cr  0.12018754  0.70473909  0.11758365     1.39100
O1012       O  0.13585862  0.67432352  0.13693157    -1.24100
O1013       O  0.35763441  0.65964710  0.23642962    -0.86300
O1014       O  0.36772072  0.67963812  0.17995788    -0.83400
C1015       C  0.37595792  0.67978995  0.15307283     0.97100
O1016       O  0.37466192  0.65595788  0.13725423    -0.83400
O1017       O  0.42271534  0.62230367  0.15593264    -0.86000
C1018       C  0.43967608  0.61168584  0.17581834     1.01700
O1019       O  0.42878261  0.60022063  0.19921537    -0.78800
O1020       O  0.40349019  0.64355681  0.23530470    -0.79000
C1021       C  0.38465597  0.66290462  0.24345859     1.01600
O1022       O  0.31751021  0.61677692  0.21378033    -0.86300
O1023       O  0.32025653  0.64370661  0.15821366    -0.83400
C1024       C  0.31541896  0.61924152  0.14531844     0.97200
O1025       O  0.33672445  0.60088985  0.14269300    -0.83400
O1026       O  0.38746439  0.56879025  0.15861233    -0.86000
C1027       C  0.38281367  0.55256728  0.18135405     1.01600
O1028       O  0.37677650  0.56417258  0.20633398    -0.78800
O1029       O  0.35210916  0.60380648  0.24595680    -0.79000
C1030       C  0.32463989  0.60534444  0.23853291     1.01600
Cr1031     Cr  0.34278084  0.64794418  0.19643774     1.93700
Cr1032     Cr  0.37951584  0.61264915  0.15118506     1.93200
Cr1033     Cr  0.38904567  0.60425001  0.21946100     1.39100
O1034       O  0.37091898  0.62142409  0.18886721    -1.24100
O1035       O  0.22376415  0.63445759  0.32721296    -0.86300
O1036       O  0.16531024  0.62588790  0.31201110    -0.83400
C1037       C  0.13778222  0.62033274  0.31320319     0.97100
O1038       O  0.12391439  0.62183578  0.33792437    -0.83400
O1039       O  0.14624258  0.57290604  0.36776772    -0.86000
C1040       C  0.16659422  0.55620622  0.37801772     1.01700
O1041       O  0.18914074  0.56689940  0.39146616    -0.78800
O1042       O  0.22572201  0.59049552  0.34793579    -0.79000
C1043       C  0.23307683  0.60788952  0.32713419     1.01600
O1044       O  0.20576323  0.67728552  0.37072528    -0.86300
O1045       O  0.14774561  0.67460726  0.34931344    -0.83400
C1046       C  0.13618758  0.67919556  0.37456601     0.97200
O1047       O  0.13371487  0.65777541  0.39258471    -0.83400
O1048       O  0.15007899  0.60656211  0.42235749    -0.86000
C1049       C  0.17190085  0.61506498  0.43828184     1.01600
O1050       O  0.19697713  0.62040431  0.42653684    -0.78800
O1051       O  0.23683460  0.64238310  0.38511759    -0.79000
C1052       C  0.23053795  0.66983820  0.38211911     1.01600
Cr1053     Cr  0.18510107  0.65105701  0.34189026     1.93700
Cr1054     Cr  0.14113663  0.61544652  0.37941565     1.93200
Cr1055     Cr  0.20971088  0.60630342  0.38660831     1.39100
O1056       O  0.17868341  0.62394057  0.36936488    -1.24100
C1057       C  0.30019272  0.59802841  0.25992188    -0.07100
C1058       C  0.27140117  0.60826862  0.25262172    -0.18200
C1059       C  0.24844088  0.60864266  0.27345027     0.10100
C1060       C  0.25372891  0.59882405  0.30286544    -0.07000
C1061       C  0.28134079  0.58534020  0.30954703    -0.18300
C1062       C  0.30466496  0.58454962  0.28822766     0.10100
S1063       S  0.21283649  0.62273411  0.26118166    -0.33200
S1064       S  0.33976574  0.56691052  0.29780098    -0.33200
H1065       H  0.33033730  0.55475640  0.32513216     0.28100
H1066       H  0.19769399  0.59874665  0.27437540     0.28100
H1067       H  0.26677822  0.61751953  0.23077631     0.18700
H1068       H  0.28527665  0.57728407  0.33197237     0.18700
C1069       C  0.22117988  0.61963194  0.13103463    -0.07100
C1070       C  0.23399422  0.59868971  0.15049247    -0.18200
C1071       C  0.26517461  0.59446697  0.15189792     0.10100
C1072       C  0.28435566  0.61297100  0.13501799    -0.07000
C1073       C  0.27143878  0.63232555  0.11398815    -0.18300
C1074       C  0.24010649  0.63523027  0.11127782     0.10100
S1075       S  0.27922587  0.56736604  0.17800006    -0.33200
S1076       S  0.22459650  0.66136170  0.08484661    -0.33200
H1077       H  0.25164283  0.66789884  0.07020147     0.28100
H1078       H  0.30410052  0.55911007  0.16059265     0.28100
H1079       H  0.21969578  0.58653084  0.16571477     0.18700
H1080       H  0.28595654  0.64674613  0.10117852     0.18700
C1081       C  0.11756426  0.62334539  0.22257678    -0.07100
C1082       C  0.10120577  0.64166114  0.24226232    -0.18200
C1083       C  0.10335581  0.63795073  0.27320927     0.10100
C1084       C  0.12228085  0.61557290  0.28454310    -0.07000
C1085       C  0.13407420  0.59406354  0.26484636    -0.18300
C1086       C  0.13139618  0.59741303  0.23386699     0.10100
S1087       S  0.08606477  0.66486349  0.29777600    -0.33200
S1088       S  0.14972997  0.57044710  0.21020388    -0.33200
H1089       H  0.12616387  0.56955763  0.18933657     0.28100
H1090       H  0.06919401  0.67971245  0.27582947     0.28100
H1091       H  0.08968186  0.66107394  0.23351406     0.18700
H1092       H  0.14789498  0.57616211  0.27354602     0.18700
C1093       C  0.25447554  0.78759279  0.11750677    -0.07100
C1094       C  0.22786800  0.79273453  0.10169814    -0.18200
C1095       C  0.20498881  0.77114951  0.10101829     0.10100
C1096       C  0.20894642  0.74402149  0.11679272    -0.07000
C1097       C  0.23717331  0.73770939  0.12904850    -0.18300
C1098       C  0.25979556  0.75905651  0.12974781     0.10100
S1099       S  0.17104446  0.77895663  0.08045714    -0.33200
S1100       S  0.29471996  0.74976145  0.14796212    -0.33200
H1101       H  0.28943807  0.71905388  0.15160168     0.28100
H1102       H  0.17986101  0.80675212  0.06899337     0.28100
H1103       H  0.22421291  0.81438890  0.09170186     0.18700
H1104       H  0.24102052  0.71660558  0.14006321     0.18700
C1105       C  0.38424701  0.70915455  0.14037906    -0.07100
C1106       C  0.36888605  0.71946007  0.11513483    -0.18200
C1107       C  0.36713799  0.75011410  0.10908536     0.10100
C1108       C  0.38104449  0.77086168  0.12855156    -0.07000
C1109       C  0.40024388  0.76023031  0.15080009    -0.18300
C1110       C  0.40177635  0.72960507  0.15714718     0.10100
S1111       S  0.34355628  0.76191030  0.07860256    -0.33200
S1112       S  0.42387292  0.71727670  0.18859651    -0.33200
H1113       H  0.43688293  0.74503719  0.19548767     0.28100
H1114       H  0.35563802  0.79078676  0.07645862     0.28100
H1115       H  0.35561094  0.70404269  0.10194874     0.18700
H1116       H  0.41088282  0.77609929  0.16569604     0.18700
C1117       C  0.10975927  0.79522618  0.24409351    -0.07100
C1118       C  0.11291207  0.80470933  0.21432080    -0.18200
C1119       C  0.11282333  0.78430252  0.19062826     0.10100
C1120       C  0.10941180  0.75368395  0.19668199    -0.07000
C1121       C  0.10340442  0.74445566  0.22594109    -0.18300
C1122       C  0.10294344  0.76495478  0.24962883     0.10100
S1123       S  0.12098965  0.79829189  0.15379984    -0.33200
S1124       S  0.09448270  0.75091056  0.28631567    -0.33200
H1125       H  0.08056882  0.77730920  0.29640757     0.28100
H1126       H  0.10500336  0.77625482  0.13813475     0.28100
H1127       H  0.11779773  0.82786075  0.20951343     0.18700
H1128       H  0.10059268  0.72091265  0.23058285     0.18700
C1129       C  0.12918432  0.71044678  0.38294699    -0.07100
C1130       C  0.15310965  0.72742971  0.39398333    -0.18200
C1131       C  0.15345049  0.75853130  0.39132555     0.10100
C1132       C  0.12940761  0.77335580  0.37707857    -0.07000
C1133       C  0.10383759  0.75675933  0.36943032    -0.18300
C1134       C  0.10343821  0.72549037  0.37238542     0.10100
S1135       S  0.18631624  0.77789135  0.40445865    -0.33200
S1136       S  0.07015108  0.70597877  0.36087633    -0.33200
H1137       H  0.07691138  0.67904402  0.37538727     0.28100
H1138       H  0.17174296  0.80532576  0.40943153     0.28100
H1139       H  0.17284328  0.71623112  0.40258362     0.18700
H1140       H  0.08506858  0.76779006  0.35878451     0.18700
C1141       C  0.25407778  0.87799215  0.21019687    -0.07100
C1142       C  0.22744112  0.89240931  0.20110911    -0.18200
C1143       C  0.20268460  0.89517628  0.22028495     0.10100
C1144       C  0.20414075  0.88286698  0.24911725    -0.07000
C1145       C  0.23135802  0.87073727  0.25900753    -0.18300
C1146       C  0.25632146  0.86864328  0.24035607     0.10100
S1147       S  0.16884138  0.91128477  0.20559573    -0.33200
S1148       S  0.28916209  0.85152830  0.25622444    -0.33200
H1149       H  0.30763211  0.87514485  0.24728712     0.28100
H1150       H  0.16203850  0.92727360  0.23182698     0.28100
H1151       H  0.22524944  0.90034571  0.17840100     0.18700
H1152       H  0.23269577  0.86116268  0.28115771     0.18700
C1153       C  0.38453192  0.86654664  0.28713067    -0.07100
C1154       C  0.40349127  0.84779072  0.27051453    -0.18200
C1155       C  0.40292050  0.84787838  0.23913729     0.10100
C1156       C  0.38363957  0.86772613  0.22390893    -0.07000
C1157       C  0.36813218  0.88945066  0.24056844    -0.18300
C1158       C  0.36795169  0.88866578  0.27205128     0.10100
S1159       S  0.42491631  0.82005639  0.21977824    -0.33200
S1160       S  0.34437591  0.91405839  0.29290690    -0.33200
H1161       H  0.33503193  0.93123050  0.26837621     0.28100
H1162       H  0.42542027  0.83480741  0.19213003     0.28100
H1163       H  0.41634569  0.83074604  0.28189488     0.18700
H1164       H  0.35339104  0.90473165  0.22900011     0.18700
C1165       C  0.39087910  0.74062192  0.29819501    -0.07100
C1166       C  0.40793473  0.71520833  0.30587942    -0.18200
C1167       C  0.40887751  0.68985947  0.28718848     0.10100
C1168       C  0.39245178  0.69006299  0.26038045    -0.07000
C1169       C  0.37802045  0.71633637  0.25145872    -0.18300
C1170       C  0.37716583  0.74151541  0.26966621     0.10100
S1171       S  0.42827421  0.65660046  0.29908576    -0.33200
S1172       S  0.35503726  0.77227120  0.25610340    -0.33200
H1173       H  0.37837140  0.79268197  0.26030859     0.28100
H1174       H  0.43960682  0.66840294  0.32598032     0.28100
H1175       H  0.41895665  0.71449544  0.32741620     0.18700
H1176       H  0.36570124  0.71671059  0.23056956     0.18700
C1177       C  0.28411258  0.86571474  0.38114614    -0.07100
C1178       C  0.27359679  0.88626255  0.36014431    -0.18200
C1179       C  0.24286744  0.88914900  0.35459080     0.10100
C1180       C  0.22231532  0.87107932  0.37035701    -0.07000
C1181       C  0.23259715  0.85434678  0.39463792    -0.18300
C1182       C  0.26333616  0.85151190  0.40019044     0.10100
S1183       S  0.23152689  0.91405601  0.32509120    -0.33200
S1184       S  0.27498671  0.82625081  0.42923641    -0.33200
H1185       H  0.30409348  0.83784735  0.43216295     0.28100
H1186       H  0.20117115  0.91580550  0.33316534     0.28100
H1187       H  0.28932853  0.89741110  0.34556478     0.18700
H1188       H  0.21703079  0.84087489  0.40724221     0.18700
C1189       C  0.29901782  0.73736600  0.38638157    -0.07100
C1190       C  0.30390971  0.71014158  0.40095193    -0.18200
C1191       C  0.28142659  0.68823147  0.40216304     0.10100
C1192       C  0.25326603  0.69353627  0.38833159    -0.07000
C1193       C  0.24777805  0.72197902  0.37638477    -0.18300
C1194       C  0.27018373  0.74365826  0.37494467     0.10100
S1195       S  0.29063089  0.65398780  0.42099682    -0.33200
S1196       S  0.26159676  0.77904436  0.35762177    -0.33200
H1197       H  0.23181879  0.77285454  0.34949255     0.28100
H1198       H  0.26235752  0.65105486  0.43443025     0.28100
H1199       H  0.32581701  0.70531441  0.41018141     0.18700
H1200       H  0.22621980  0.72683911  0.36649826     0.18700
C1201       C  0.32838975  0.02178126  0.13652304    -0.07100
C1202       C  0.35261383  0.00764134  0.12207898    -0.18200
C1203       C  0.35527369  0.97649108  0.12090341     0.10100
C1204       C  0.33289478  0.95848610  0.13405037    -0.07000
C1205       C  0.30941292  0.97268473  0.14953445    -0.18300
C1206       C  0.30697239  0.00370151  0.15118577     0.10100
S1207       S  0.38693448  0.96151150  0.10094766    -0.33200
S1208       S  0.27552764  0.01801854  0.17215291    -0.33200
H1209       H  0.29202413  0.04027185  0.18675843     0.28100
H1210       H  0.39770010  0.94592866  0.12598641     0.28100
H1211       H  0.36942296  0.02090874  0.11088507     0.18700
H1212       H  0.29239977  0.95946387  0.16049446     0.18700
C1213       C  0.19675302  0.22973909  0.11432788    -0.07100
C1214       C  0.22651139  0.23814397  0.10966609    -0.18200
C1215       C  0.24924104  0.21678451  0.10867551     0.10100
C1216       C  0.24219069  0.18640330  0.11256393    -0.07000
C1217       C  0.21216423  0.17779855  0.11511984    -0.18300
C1218       C  0.18930364  0.19918529  0.11604849     0.10100
S1219       S  0.28706153  0.22976415  0.10484517    -0.33200
S1220       S  0.15185075  0.18633934  0.12356925    -0.33200
H1221       H  0.13710955  0.20885570  0.10754893     0.28100
H1222       H  0.29746200  0.20345110  0.09104894     0.28100
H1223       H  0.23227631  0.26160926  0.10853608     0.18700
H1224       H  0.20672260  0.15455701  0.11890669     0.18700
C1225       C  0.12023818  0.02465568  0.34149607    -0.07100
C1226       C  0.14288405  0.00944609  0.35727304    -0.18200
C1227       C  0.14442065  0.97794451  0.35748009     0.10100
C1228       C  0.12302280  0.96121316  0.34118071    -0.07000
C1229       C  0.09948219  0.97656405  0.32706521    -0.18300
C1230       C  0.09750414  0.00766410  0.32752958     0.10100
S1231       S  0.17464860  0.95975607  0.37712936    -0.33200
S1232       S  0.06472972  0.02405148  0.31059361    -0.33200
H1233       H  0.06141867  0.04651711  0.33242754     0.28100
H1234       H  0.18761725  0.98571240  0.38925716     0.28100
H1235       H  0.16001560  0.02229780  0.36856196     0.18700
H1236       H  0.08215196  0.96413095  0.31551209     0.18700
C1237       C  0.20282749  0.10622575  0.25590723    -0.07100
C1238       C  0.19723944  0.09256810  0.22825101    -0.18200
C1239       C  0.21904185  0.09257842  0.20552728     0.10100
C1240       C  0.24705264  0.10674870  0.21075834    -0.07000
C1241       C  0.25356489  0.11692585  0.23970822    -0.18300
C1242       C  0.23189895  0.11710065  0.26209956     0.10100
S1243       S  0.20994693  0.07539683  0.17004359    -0.33200
S1244       S  0.24159921  0.13344966  0.29775663    -0.33200
H1245       H  0.27286893  0.13087693  0.29469088     0.28100
H1246       H  0.18331313  0.06146609  0.17921038     0.28100
H1247       H  0.17507432  0.08391561  0.22371593     0.18700
H1248       H  0.27513465  0.12684937  0.24445033     0.18700
C1249       C  0.11603802  0.24141724  0.21095422    -0.07100
C1250       C  0.12543947  0.24995858  0.23974457    -0.18200
C1251       C  0.12529255  0.23007772  0.26365934     0.10100
C1252       C  0.11628774  0.20005722  0.25904014    -0.07000
C1253       C  0.10423428  0.19230798  0.23095095    -0.18300
C1254       C  0.10335483  0.21267696  0.20724398     0.10100
S1255       S  0.13805197  0.24470602  0.29894240    -0.33200
S1256       S  0.08591490  0.20028683  0.17307947    -0.33200
H1257       H  0.07087998  0.22747787  0.16820955     0.28100
H1258       H  0.11308213  0.23324986  0.31403931     0.28100
H1259       H  0.13405811  0.27222994  0.24369286     0.18700
H1260       H  0.09598980  0.16989299  0.22706870     0.18700
C1261       C  0.28112127  0.11516181  0.38754901    -0.07100
C1262       C  0.26974000  0.09470756  0.36672796    -0.18200
C1263       C  0.23876693  0.09023741  0.36421440     0.10100
C1264       C  0.21887700  0.10772427  0.38172131    -0.07000
C1265       C  0.23047517  0.12388079  0.40597030    -0.18300
C1266       C  0.26163213  0.12713118  0.40935964     0.10100
S1267       S  0.22558402  0.06479638  0.33572763    -0.33200
S1268       S  0.27671182  0.14833043  0.44017608    -0.33200
H1269       H  0.24919171  0.15382017  0.45448704     0.28100
H1270       H  0.19639316  0.06214404  0.34717019     0.28100
H1271       H  0.28456969  0.08461939  0.35038348     0.18700
H1272       H  0.21539556  0.13656965  0.42010203     0.18700
C1273       C  0.37584297  0.11982281  0.28846123    -0.07100
C1274       C  0.35665561  0.09905290  0.27488666    -0.18200
C1275       C  0.35508492  0.09638619  0.24364452     0.10100
C1276       C  0.37207945  0.11575417  0.22562757    -0.07000
C1277       C  0.39305107  0.13468271  0.23918930    -0.18300
C1278       C  0.39575849  0.13618458  0.27032845     0.10100
S1279       S  0.32874726  0.07079356  0.22705867    -0.33200
S1280       S  0.42237931  0.16218289  0.28545941    -0.33200
H1281       H  0.43161810  0.14336513  0.30875137     0.28100
H1282       H  0.31967970  0.05703105  0.25372501     0.28100
H1283       H  0.34137460  0.08650697  0.28874182     0.18700
H1284       H  0.40619087  0.14961792  0.22549921     0.18700
C1285       C  0.38236289  0.45614523  0.17582123    -0.07100
C1286       C  0.39130964  0.47071768  0.20215490    -0.18200
C1287       C  0.39312911  0.50177284  0.20396418     0.10100
C1288       C  0.38470462  0.51945057  0.17914998    -0.07000
C1289       C  0.37664697  0.50494597  0.15239504    -0.18300
C1290       C  0.37519182  0.47362758  0.15053436     0.10100
S1291       S  0.40777665  0.51709818  0.23834199    -0.33200
S1292       S  0.36205536  0.45753123  0.11603392    -0.33200
H1293       H  0.34286957  0.43715923  0.13014170     0.28100
H1294       H  0.42535133  0.53888482  0.22417873     0.28100
H1295       H  0.39768144  0.45770439  0.22149484     0.18700
H1296       H  0.37020563  0.51806882  0.13317412     0.18700
C1297       C  0.38592756  0.26937213  0.12593815    -0.07100
C1298       C  0.40351079  0.25052770  0.14391334    -0.18200
C1299       C  0.39984840  0.21950178  0.14298670     0.10100
C1300       C  0.37779021  0.20721326  0.12409286    -0.07000
C1301       C  0.36482486  0.22552304  0.10221544    -0.18300
C1302       C  0.36911802  0.25647513  0.10260968     0.10100
S1303       S  0.42001716  0.19746944  0.16985248    -0.33200
S1304       S  0.34906723  0.27848510  0.07573557    -0.33200
H1305       H  0.37109618  0.30077427  0.07399753     0.28100
H1306       H  0.42552202  0.17382793  0.14980916     0.28100
H1307       H  0.41728916  0.26016227  0.16140086     0.18700
H1308       H  0.34911746  0.21608789  0.08646442     0.18700
C1309       C  0.22379823  0.36293496  0.12436253    -0.07100
C1310       C  0.24096613  0.34998513  0.10142926    -0.18200
C1311       C  0.27219412  0.35274327  0.10096730     0.10100
C1312       C  0.28685706  0.36844393  0.12407363    -0.07000
C1313       C  0.26948229  0.38441496  0.14490430    -0.18300
C1314       C  0.23812306  0.38187624  0.14525944     0.10100
S1315       S  0.29239316  0.33324059  0.07204426    -0.33200
S1316       S  0.21823763  0.39924846  0.17575670    -0.33200
H1317       H  0.19267967  0.40621347  0.15884657     0.28100
H1318       H  0.31901468  0.34973069  0.07498375     0.28100
H1319       H  0.23024257  0.33541983  0.08526952     0.18700
H1320       H  0.28048374  0.39630223  0.16295491     0.18700
C1321       C  0.38397893  0.28694097  0.25672287    -0.07100
C1322       C  0.39307355  0.29515020  0.28554899    -0.18200
C1323       C  0.39256202  0.27461367  0.30910458     0.10100
C1324       C  0.38269635  0.24488843  0.30378119    -0.07000
C1325       C  0.37612776  0.23634407  0.27418134    -0.18300
C1326       C  0.37626770  0.25697580  0.25084479     0.10100
S1327       S  0.40313908  0.28867470  0.34535655    -0.33200
S1328       S  0.36531669  0.24492797  0.21383709    -0.33200
H1329       H  0.36380083  0.21416086  0.21976570     0.28100
H1330       H  0.42204361  0.26441405  0.35168886     0.28100
H1331       H  0.39899838  0.31816580  0.29013107     0.18700
H1332       H  0.36919639  0.21369268  0.26941221     0.18700
C1333       C  0.16630115  0.46043570  0.37413656    -0.07100
C1334       C  0.17916689  0.47700189  0.35087136    -0.18200
C1335       C  0.17809887  0.50825203  0.35078345     0.10100
C1336       C  0.16431367  0.52357525  0.37475508    -0.07000
C1337       C  0.15129545  0.50721042  0.39792777    -0.18300
C1338       C  0.15195706  0.47593280  0.39781493     0.10100
S1339       S  0.19606799  0.52723814  0.32019863    -0.33200
S1340       S  0.13708346  0.45725878  0.43005799    -0.33200
H1341       H  0.11429990  0.44312326  0.41354987     0.28100
H1342       H  0.17798138  0.55292577  0.32090857     0.28100
H1343       H  0.19041644  0.46550976  0.33269292     0.18700
H1344       H  0.14135503  0.51891581  0.41672792     0.18700
C1345       C  0.12650073  0.36506966  0.28324537    -0.07100
C1346       C  0.10704072  0.34553817  0.26829811    -0.18200
C1347       C  0.10469600  0.34562712  0.23705369     0.10100
C1348       C  0.12393126  0.36393224  0.22005889    -0.07000
C1349       C  0.14152785  0.38521154  0.23504743    -0.18300
C1350       C  0.14228028  0.38659007  0.26649785     0.10100
S1351       S  0.07903604  0.31963089  0.22007201    -0.33200
S1352       S  0.16612367  0.41354805  0.28490986    -0.33200
H1353       H  0.17609551  0.42794804  0.25891385     0.28100
H1354       H  0.07096391  0.33860805  0.19649390     0.28100
H1355       H  0.09458059  0.32918943  0.28097139     0.18700
H1356       H  0.15629514  0.39925960  0.22211596     0.18700
C1357       C  0.13115218  0.27147087  0.38773440    -0.07100
C1358       C  0.15013491  0.25392551  0.40553331    -0.18200
C1359       C  0.14735771  0.22291139  0.40623123     0.10100
C1360       C  0.12517801  0.20888044  0.38872480    -0.07000
C1361       C  0.10307727  0.22660739  0.37513522    -0.18300
C1362       C  0.10574242  0.25790602  0.37462835     0.10100
S1363       S  0.17510747  0.20209746  0.42680601    -0.33200
S1364       S  0.07889360  0.27867002  0.35306142    -0.33200
H1365       H  0.07667199  0.30200743  0.37407162     0.28100
H1366       H  0.15811728  0.17579061  0.42899862     0.28100
H1367       H  0.16918568  0.26414768  0.41655952     0.18700
H1368       H  0.08572161  0.21603358  0.36189112     0.18700
C1369       C  0.30501424  0.25516245  0.39586560    -0.07100
C1370       C  0.31188036  0.28026258  0.37860093    -0.18200
C1371       C  0.29148404  0.30377537  0.37563162     0.10100
C1372       C  0.26361290  0.30213435  0.39017612    -0.07000
C1373       C  0.25766908  0.27831936  0.40944831    -0.18300
C1374       C  0.27825124  0.25486893  0.41262863     0.10100
S1375       S  0.30028917  0.33482817  0.35161948    -0.33200
S1376       S  0.26781216  0.22424779  0.43614861    -0.33200
H1377       H  0.29721675  0.21559970  0.44317839     0.28100
H1378       H  0.33024335  0.32678312  0.34598773     0.28100
H1379       H  0.33241101  0.28041108  0.36572622     0.18700
H1380       H  0.23617832  0.27707541  0.42059941     0.18700
C1381       C  0.24804892  0.37497556  0.29020580    -0.07100
C1382       C  0.27514938  0.39008081  0.29546473    -0.18200
C1383       C  0.29773954  0.39106867  0.27380267     0.10100
C1384       C  0.29381845  0.37568928  0.24640221    -0.07000
C1385       C  0.26561940  0.36355975  0.23990331    -0.18300
C1386       C  0.24270067  0.36302652  0.26115891     0.10100
S1387       S  0.33087799  0.41225616  0.28264690    -0.33200
S1388       S  0.20808485  0.34470595  0.25066562    -0.33200
H1389       H  0.21342185  0.34273175  0.21975457     0.28100
H1390       H  0.33509771  0.42249869  0.25327345     0.28100
H1391       H  0.27921911  0.40055380  0.31695148     0.18700
H1392       H  0.26206393  0.35248219  0.21865983     0.18700
C1393       C  0.53645188  0.60903142  0.16986815    -0.07100
C1394       C  0.52052763  0.63115687  0.15432732    -0.18200
C1395       C  0.48910715  0.63251144  0.15511427     0.10100
C1396       C  0.47286044  0.61125109  0.17196321    -0.07000
C1397       C  0.48889206  0.58820557  0.18601107    -0.18300
C1398       C  0.52010495  0.58642098  0.18453706     0.10100
S1399       S  0.47160975  0.66271434  0.13524036    -0.33200
S1400       S  0.53742994  0.55380455  0.20058251    -0.33200
H1401       H  0.55916730  0.55075093  0.17800037     0.28100
H1402       H  0.45163237  0.66952796  0.15841765     0.28100
H1403       H  0.53265164  0.64828785  0.14240361     0.18700
H1404       H  0.47693239  0.57089460  0.19786977     0.18700
C1405       C  0.75933512  0.60573457  0.29139594    -0.07100
C1406       C  0.76525836  0.61968478  0.26406784    -0.18200
C1407       C  0.74355281  0.62159017  0.24167199     0.10100
C1408       C  0.71466373  0.60931961  0.24679875    -0.07000
C1409       C  0.70997383  0.59247377  0.27279362    -0.18300
C1410       C  0.73215966  0.58997665  0.29473906     0.10100
S1411       S  0.75316023  0.64209218  0.20821274    -0.33200
S1412       S  0.72439015  0.56635688  0.32626523    -0.33200
H1413       H  0.75415317  0.55638656  0.32930337     0.28100
H1414       H  0.78420141  0.64406749  0.21320676     0.28100
H1415       H  0.78637855  0.63106080  0.26093123     0.18700
H1416       H  0.68862900  0.58159486  0.27638744     0.18700
C1417       C  0.53527456  0.81987696  0.38028768    -0.07100
C1418       C  0.52053908  0.79297594  0.38682206    -0.18200
C1419       C  0.48944692  0.79117615  0.38893603     0.10100
C1420       C  0.47162310  0.81666773  0.38330627    -0.07000
C1421       C  0.48608854  0.84370224  0.37655491    -0.18300
C1422       C  0.51761414  0.84568139  0.37501867     0.10100
S1423       S  0.47433754  0.75576577  0.40051632    -0.33200
S1424       S  0.53456399  0.88133527  0.36694405    -0.33200
H1425       H  0.50792111  0.89805080  0.36536587     0.28100
H1426       H  0.45374423  0.76843711  0.42074508     0.28100
H1427       H  0.53341174  0.77288366  0.39098367     0.18700
H1428       H  0.47256899  0.86327641  0.37213507     0.18700
C1429       C  0.61279712  0.73426524  0.30296396    -0.07100
C1430       C  0.62155298  0.74244480  0.27413432    -0.18200
C1431       C  0.62293453  0.72153431  0.25097548     0.10100
C1432       C  0.61527881  0.69149186  0.25661030    -0.07000
C1433       C  0.60331942  0.68393774  0.28461370    -0.18300
C1434       C  0.60184055  0.70514591  0.30784912     0.10100
S1435       S  0.63636784  0.73341111  0.21488903    -0.33200
S1436       S  0.58925695  0.69298915  0.34395349    -0.33200
H1437       H  0.57106707  0.71819649  0.34884370     0.28100
H1438       H  0.63495395  0.76433669  0.22035555     0.28100
H1439       H  0.62952439  0.76494156  0.27033414     0.18700
H1440       H  0.59713218  0.66101032  0.28907097     0.18700
C1441       C  0.70979982  0.73778717  0.38680100    -0.07100
C1442       C  0.70101918  0.70875648  0.39512711    -0.18200
C1443       C  0.72128029  0.68488207  0.39482811     0.10100
C1444       C  0.75138307  0.69011938  0.38734675    -0.07000
C1445       C  0.76091871  0.71936968  0.38201998    -0.18300
C1446       C  0.74068237  0.74327675  0.38157160     0.10100
S1447       S  0.70673611  0.64793671  0.40099021    -0.33200
S1448       S  0.75504254  0.77971249  0.37207320    -0.33200
H1449       H  0.78564862  0.77316329  0.37579404     0.28100
H1450       H  0.72220895  0.63448884  0.37708859     0.28100
H1451       H  0.67770185  0.70397738  0.39964040     0.18700
H1452       H  0.78415461  0.72313390  0.37625000     0.18700
C1453       C  0.62755423  0.77257402  0.11849621    -0.07100
C1454       C  0.60440111  0.76153149  0.13643504    -0.18200
C1455       C  0.60054729  0.73064583  0.14013676     0.10100
C1456       C  0.62046850  0.71036809  0.12601940    -0.07000
C1457       C  0.64044650  0.72134183  0.10462861    -0.18300
C1458       C  0.64396554  0.75217196  0.10054333     0.10100
S1459       S  0.57204553  0.71833451  0.16580036    -0.33200
S1460       S  0.67234404  0.76433714  0.07467272    -0.33200
H1461       H  0.66065862  0.79326055  0.07087878     0.28100
H1462       H  0.57095510  0.68875745  0.15520477     0.28100
H1463       H  0.59144357  0.77682464  0.15014179     0.18700
H1464       H  0.65572929  0.70611072  0.09347605     0.18700
C1465       C  0.62312629  0.86853926  0.21853664    -0.07100
C1466       C  0.60267578  0.84872218  0.23146100    -0.18200
C1467       C  0.60112628  0.84506847  0.26249167     0.10100
C1468       C  0.62111990  0.86078182  0.28136054    -0.07000
C1469       C  0.63911499  0.88310399  0.26881557    -0.18300
C1470       C  0.64003573  0.88740372  0.23766358     0.10100
S1471       S  0.57542969  0.81751658  0.27663828    -0.33200
S1472       S  0.66642627  0.91423197  0.22355685    -0.33200
H1473       H  0.64898247  0.92247279  0.19880509     0.28100
H1474       H  0.57351893  0.82967669  0.30561513     0.28100
H1475       H  0.58952233  0.83417345  0.21717164     0.18700
H1476       H  0.65466682  0.89522861  0.28295115     0.18700
C1477       C  0.97065944  0.66225012  0.12197517    -0.07100
C1478       C  0.98605389  0.64966928  0.14631553    -0.18200
C1479       C  0.01749472  0.65036533  0.14818864     0.10100
C1480       C  0.03442889  0.66265172  0.12451501    -0.07000
C1481       C  0.01902516  0.67469823  0.10000578    -0.18300
C1482       C  0.98773510  0.67457284  0.09835586     0.10100
S1483       S  0.03433504  0.63743547  0.18237830    -0.33200
S1484       S  0.97143600  0.68994944  0.06489024    -0.33200
H1485       H  0.94828102  0.66895436  0.06289927     0.28100
H1486       H  0.05526563  0.66081862  0.18422446     0.28100
H1487       H  0.97351130  0.64046401  0.16476137     0.18700
H1488       H  0.03153720  0.68406470  0.08156476     0.18700
C1489       C  0.75408933  0.79342063  0.11367332    -0.07100
C1490       C  0.74513436  0.76506717  0.12318526    -0.18200
C1491       C  0.76528777  0.74120145  0.12488706     0.10100
C1492       C  0.79561115  0.74562295  0.11633334    -0.07000
C1493       C  0.80354978  0.77325706  0.10353549    -0.18300
C1494       C  0.78329597  0.79724380  0.10251802     0.10100
S1495       S  0.75172074  0.70657557  0.14055989    -0.33200
S1496       S  0.79681878  0.83264718  0.08928626    -0.33200
H1497       H  0.78391161  0.84967773  0.11241741     0.28100
H1498       H  0.72100776  0.71364238  0.14074911     0.28100
H1499       H  0.72250718  0.76224490  0.13139928     0.18700
H1500       H  0.82632198  0.77698684  0.09614192     0.18700
C1501       C  0.78464407  0.61966360  0.12236258    -0.07100
C1502       C  0.77058203  0.59822946  0.14017602    -0.18200
C1503       C  0.73930059  0.59566983  0.14084805     0.10100
C1504       C  0.72143747  0.61627074  0.12489409    -0.07000
C1505       C  0.73556625  0.63587008  0.10504606    -0.18300
C1506       C  0.76689621  0.63702509  0.10285042     0.10100
S1507       S  0.72361812  0.56849764  0.16571653    -0.33200
S1508       S  0.78283166  0.66380370  0.07753523    -0.33200
H1509       H  0.80769011  0.64610759  0.06986362     0.28100
H1510       H  0.70101940  0.55948818  0.14577274     0.28100
H1511       H  0.78395625  0.58473844  0.15517067     0.18700
H1512       H  0.72217542  0.65165774  0.09251174     0.18700
C1513       C  0.88396327  0.62038687  0.22114707    -0.07100
C1514       C  0.86517893  0.59887006  0.23400817    -0.18200
C1515       C  0.86464005  0.59462697  0.26526703     0.10100
C1516       C  0.88253559  0.61290507  0.28394530    -0.07000
C1517       C  0.90379429  0.63158633  0.27068698    -0.18300
C1518       C  0.90520403  0.63490548  0.23961721     0.10100
S1519       S  0.83867932  0.56838559  0.28135578    -0.33200
S1520       S  0.93275270  0.66037406  0.22501843    -0.33200
H1521       H  0.93101263  0.65032091  0.19534590     0.28100
H1522       H  0.82772761  0.55684742  0.25419188     0.28100
H1523       H  0.84894258  0.58758062  0.21998732     0.18700
H1524       H  0.91786642  0.64548670  0.28474161     0.18700
C1525       C  0.96998135  0.87374969  0.33293015    -0.07100
C1526       C  0.98561817  0.85037630  0.34694175    -0.18200
C1527       C  0.01697231  0.84875572  0.34599708     0.10100
C1528       C  0.03322727  0.87105814  0.33094108    -0.07000
C1529       C  0.01780490  0.89490510  0.31790253    -0.18300
C1530       C  0.98659917  0.89691751  0.31933438     0.10100
S1531       S  0.03482526  0.81704348  0.36310697    -0.33200
S1532       S  0.96968934  0.93035612  0.30461536    -0.33200
H1533       H  0.94812969  0.93283690  0.32741296     0.28100
H1534       H  0.05784573  0.81444799  0.34184041     0.28100
H1535       H  0.97334333  0.83257026  0.35767660     0.18700
H1536       H  0.03029350  0.91250189  0.30701642     0.18700
C1537       C  0.89688544  0.79329275  0.24553821    -0.07100
C1538       C  0.88863010  0.76423417  0.25321264    -0.18200
C1539       C  0.88603213  0.74190908  0.23161404     0.10100
C1540       C  0.89314731  0.74830317  0.20155352    -0.07000
C1541       C  0.90533316  0.77630287  0.19452522    -0.18300
C1542       C  0.90724943  0.79895421  0.21630248     0.10100
S1543       S  0.87079107  0.70639597  0.24274215    -0.33200
S1544       S  0.91949518  0.83531694  0.20473254    -0.33200
H1545       H  0.93766702  0.83987781  0.23000577     0.28100
H1546       H  0.87386234  0.71039311  0.27379299     0.28100
H1547       H  0.88118638  0.75984194  0.27579866     0.18700
H1548       H  0.91108589  0.78132486  0.17159096     0.18700
C1549       C  0.79479835  0.86844610  0.25107711    -0.07100
C1550       C  0.79619234  0.89060283  0.22902260    -0.18200
C1551       C  0.77311185  0.89398574  0.20804732     0.10100
C1552       C  0.74818352  0.87463304  0.20892690    -0.07000
C1553       C  0.74615050  0.85366418  0.23195306    -0.18300
C1554       C  0.76926450  0.84976181  0.25235803     0.10100
S1555       S  0.77651699  0.92355850  0.18114532    -0.33200
S1556       S  0.76577037  0.81826565  0.27711785    -0.33200
H1557       H  0.79472157  0.80731313  0.27107034     0.28100
H1558       H  0.74554154  0.92887513  0.17887084     0.28100
H1559       H  0.81536858  0.90536393  0.22809594     0.18700
H1560       H  0.72743859  0.83828929  0.23266913     0.18700
C1561       C  0.78466895  0.86651315  0.37319888    -0.07100
C1562       C  0.77055309  0.85114245  0.39640410    -0.18200
C1563       C  0.73925886  0.85145394  0.39929977     0.10100
C1564       C  0.72151945  0.86530446  0.37715142    -0.07000
C1565       C  0.73578365  0.88307484  0.35574319    -0.18300
C1566       C  0.76717857  0.88461024  0.35419440     0.10100
S1567       S  0.72327685  0.83090571  0.42966860    -0.33200
S1568       S  0.78462317  0.90809611  0.32658479    -0.33200
H1569       H  0.75830244  0.91576933  0.31112452     0.28100
H1570       H  0.70021673  0.85161463  0.43514527     0.28100
H1571       H  0.78385630  0.83770577  0.41150191     0.18700
H1572       H  0.72227665  0.89427267  0.33910286     0.18700
C1573       C  0.88034373  0.70961585  0.38331212    -0.07100
C1574       C  0.90272459  0.72039090  0.36431997    -0.18200
C1575       C  0.90632397  0.75118283  0.36000329     0.10100
C1576       C  0.88717711  0.77165470  0.37495889    -0.07000
C1577       C  0.86835773  0.76094007  0.39751081    -0.18300
C1578       C  0.86484888  0.73014625  0.40187901     0.10100
S1579       S  0.93306538  0.76294852  0.33226559    -0.33200
S1580       S  0.83728321  0.71817233  0.42869331    -0.33200
H1581       H  0.84868333  0.68905681  0.43185196     0.28100
H1582       H  0.93519044  0.79260486  0.34246789     0.28100
H1583       H  0.91491434  0.70493618  0.35010432     0.18700
H1584       H  0.85370250  0.77629506  0.40929613     0.18700
C1585       C  0.53182262  0.16612878  0.37972716    -0.07100
C1586       C  0.51595251  0.18774262  0.36351132    -0.18200
C1587       C  0.48466537  0.18870334  0.36315932     0.10100
C1588       C  0.46794350  0.16743925  0.37963177    -0.07000
C1589       C  0.48377303  0.14553028  0.39563425    -0.18300
C1590       C  0.51523982  0.14497830  0.39637334     0.10100
S1591       S  0.46820622  0.21779882  0.34074902    -0.33200
S1592       S  0.53250991  0.11804989  0.42070644    -0.33200
H1593       H  0.55235495  0.13879917  0.43364044     0.28100
H1594       H  0.44494122  0.20013422  0.32948663     0.28100
H1595       H  0.52806329  0.20412112  0.35054390     0.18700
H1596       H  0.47156655  0.12944298  0.40886550     0.18700
C1597       C  0.62963627  0.45865137  0.17121011    -0.07100
C1598       C  0.64557128  0.47348807  0.19393687    -0.18200
C1599       C  0.64785853  0.50458389  0.19516914     0.10100
C1600       C  0.63312441  0.52232499  0.17342732    -0.07000
C1601       C  0.61793670  0.50754698  0.15007466    -0.18300
C1602       C  0.61633970  0.47623287  0.14849417     0.10100
S1603       S  0.67012899  0.51950605  0.22538837    -0.33200
S1604       S  0.59593173  0.46048975  0.11754537    -0.33200
H1605       H  0.62088890  0.44439699  0.10693312     0.28100
H1606       H  0.68510571  0.54027705  0.20749814     0.28100
H1607       H  0.65671545  0.46072402  0.21112143     0.18700
H1608       H  0.60663094  0.52046849  0.13306065     0.18700
C1609       C  0.53521608  0.36228985  0.16930723    -0.07100
C1610       C  0.52040409  0.35858506  0.19670999    -0.18200
C1611       C  0.48910168  0.35688746  0.19844034     0.10100
C1612       C  0.47175361  0.35949604  0.17209719    -0.07000
C1613       C  0.48658281  0.36156842  0.14448026    -0.18300
C1614       C  0.51792431  0.36324196  0.14279944     0.10100
S1615       S  0.47193679  0.34990403  0.23434576    -0.33200
S1616       S  0.53411972  0.36839270  0.10633958    -0.33200
H1617       H  0.55393192  0.39098299  0.11567026     0.28100
H1618       H  0.49827497  0.35041386  0.25158008     0.28100
H1619       H  0.53353823  0.35674272  0.21693243     0.18700
H1620       H  0.47363727  0.36330895  0.12409845     0.18700
C1621       C  0.62008870  0.28667825  0.25032065    -0.07100
C1622       C  0.60282735  0.29091926  0.27619188    -0.18200
C1623       C  0.60039947  0.26834641  0.29772804     0.10100
C1624       C  0.61604250  0.24106342  0.29362460    -0.07000
C1625       C  0.63050496  0.23591413  0.26623193    -0.18300
C1626       C  0.63276348  0.25821659  0.24467081     0.10100
S1627       S  0.57724197  0.27586785  0.32984341    -0.33200
S1628       S  0.65280148  0.24994393  0.21047783    -0.33200
H1629       H  0.65687413  0.21917995  0.21514526     0.28100
H1630       H  0.56705676  0.24629429  0.33247541     0.28100
H1631       H  0.59225027  0.31233896  0.28029661     0.18700
H1632       H  0.64186762  0.21489328  0.26235199     0.18700
C1633       C  0.67007684  0.96250009  0.12683298    -0.07100
C1634       C  0.68962406  0.97845752  0.14576326    -0.18200
C1635       C  0.68996942  0.00974064  0.14648552     0.10100
C1636       C  0.67037492  0.02597105  0.12791632    -0.07000
C1637       C  0.65016171  0.01035244  0.10968713    -0.18300
C1638       C  0.65013295  0.97900123  0.10848769     0.10100
S1639       S  0.71602705  0.02770910  0.17152533    -0.33200
S1640       S  0.62584489  0.96183329  0.08127443    -0.33200
H1641       H  0.64819880  0.94278892  0.06982395     0.28100
H1642       H  0.69763932  0.05246217  0.17787295     0.28100
H1643       H  0.70493006  0.96647772  0.16018692     0.18700
H1644       H  0.63530649  0.02270891  0.09509902     0.18700
C1645       C  0.62877370  0.12067097  0.21869658    -0.07100
C1646       C  0.63936578  0.09637107  0.23533826    -0.18200
C1647       C  0.63547686  0.09519595  0.26638672     0.10100
C1648       C  0.62099095  0.11891290  0.28139513    -0.07000
C1649       C  0.60779915  0.14169596  0.26439173    -0.18300
C1650       C  0.61166413  0.14292979  0.23330496     0.10100
S1651       S  0.65191939  0.06427481  0.28605250    -0.33200
S1652       S  0.59831955  0.17577165  0.21437638    -0.33200
H1653       H  0.59193945  0.16112591  0.18731625     0.28100
H1654       H  0.63467427  0.06764105  0.31214105     0.28100
H1655       H  0.65275966  0.07933359  0.22441212     0.18700
H1656       H  0.59709854  0.16031414  0.27566537     0.18700
C1657       C  0.62228914  0.20930451  0.11701048    -0.07100
C1658       C  0.60247082  0.22199456  0.13773976    -0.18200
C1659       C  0.60103742  0.25286812  0.14188022     0.10100
C1660       C  0.62000129  0.27161692  0.12506973    -0.07000
C1661       C  0.63620374  0.25931937  0.10114117    -0.18300
C1662       C  0.63732375  0.22824508  0.09678516     0.10100
S1663       S  0.57773817  0.26672445  0.17186561    -0.33200
S1664       S  0.66214782  0.21397081  0.06837440    -0.33200
H1665       H  0.64535302  0.18808395  0.06260165     0.28100
H1666       H  0.57532276  0.29593144  0.16082608     0.28100
H1667       H  0.59056427  0.20769720  0.15310936     0.18700
H1668       H  0.65072893  0.27349861  0.08804317     0.18700
C1669       C  0.96758432  0.11767324  0.33592410    -0.07100
C1670       C  0.98275147  0.13964149  0.31970941    -0.18200
C1671       C  0.01408694  0.14154787  0.32017661     0.10100
C1672       C  0.03101690  0.12030190  0.33638728    -0.07000
C1673       C  0.01567951  0.09905987  0.35358023    -0.18300
C1674       C  0.98428696  0.09740987  0.35339833     0.10100
S1675       S  0.03096128  0.17226877  0.30050841    -0.33200
S1676       S  0.96708999  0.06838134  0.37522359    -0.33200
H1677       H  0.94213742  0.06408921  0.35664409     0.28100
H1678       H  0.05437600  0.17653118  0.32115203     0.28100
H1679       H  0.97002514  0.15564006  0.30676040     0.18700
H1680       H  0.02824906  0.08277282  0.36629464     0.18700
C1681       C  0.87266855  0.02376482  0.32673129    -0.07100
C1682       C  0.88849495  0.00860339  0.34922532    -0.18200
C1683       C  0.88843542  0.97733785  0.35114625     0.10100
C1684       C  0.87279495  0.96009280  0.32953564    -0.07000
C1685       C  0.85624918  0.97538361  0.30758865    -0.18300
C1686       C  0.85552181  0.00662324  0.30626112     0.10100
S1687       S  0.90974746  0.96120684  0.38116001    -0.33200
S1688       S  0.83143518  0.02290148  0.27834868    -0.33200
H1689       H  0.81961806  0.04479410  0.29771940     0.28100
H1690       H  0.88481311  0.94614679  0.39295443     0.28100
H1691       H  0.90145651  0.02119452  0.36540207     0.18700
H1692       H  0.84342675  0.96288880  0.29121797     0.18700
C1693       C  0.79525867  0.10975786  0.24827270    -0.07100
C1694       C  0.80434522  0.09806069  0.22033559    -0.18200
C1695       C  0.78506862  0.09817192  0.19544610     0.10100
C1696       C  0.75620688  0.11045978  0.19843011    -0.07000
C1697       C  0.74630440  0.11986622  0.22661319    -0.18300
C1698       C  0.76502719  0.11912189  0.25153895     0.10100
S1699       S  0.79841748  0.08538101  0.15952865    -0.33200
S1700       S  0.74880267  0.13182378  0.28618056    -0.33200
H1701       H  0.75897017  0.10660434  0.30168961     0.28100
H1702       H  0.82580935  0.07365819  0.16970524     0.28100
H1703       H  0.82712744  0.09026869  0.21751625     0.18700
H1704       H  0.72379645  0.12868774  0.22908040     0.18700
C1705       C  0.78213776  0.11205756  0.37915702    -0.07100
C1706       C  0.76450244  0.09188284  0.36275602    -0.18200
C1707       C  0.73307985  0.09365928  0.36354126     0.10100
C1708       C  0.71918886  0.11605936  0.38102863    -0.07000
C1709       C  0.73690835  0.13264556  0.40104505    -0.18300
C1710       C  0.76815984  0.13091262  0.40022764     0.10100
S1711       S  0.71232492  0.07020990  0.33828507    -0.33200
S1712       S  0.78913407  0.15592653  0.42395270    -0.33200
H1713       H  0.81598927  0.13947489  0.42297903     0.28100
H1714       H  0.68796240  0.06642510  0.35774783     0.28100
H1715       H  0.77511244  0.07706144  0.34673562     0.18700
H1716       H  0.72651266  0.14960051  0.41496517     0.18700
C1717       C  0.83705535  0.45836851  0.37104869    -0.07100
C1718       C  0.85123280  0.47372500  0.39443822    -0.18200
C1719       C  0.84993487  0.50494880  0.39655927     0.10100
C1720       C  0.83477253  0.52153844  0.37431360    -0.07000
C1721       C  0.82101340  0.50602768  0.35061363    -0.18300
C1722       C  0.82209323  0.47478816  0.34869145     0.10100
S1723       S  0.86570779  0.52190106  0.42959454    -0.33200
S1724       S  0.80338513  0.45716742  0.31753131    -0.33200
H1725       H  0.82137236  0.43140795  0.31675148     0.28100
H1726       H  0.84168383  0.54178112  0.43413874     0.28100
H1727       H  0.86199268  0.46118374  0.41210668     0.18700
H1728       H  0.80931095  0.51834916  0.33338818     0.18700
C1729       C  0.75502559  0.37667000  0.29173054    -0.07100
C1730       C  0.72898647  0.39387727  0.29502213    -0.18200
C1731       C  0.70755798  0.39512764  0.27213472     0.10100
C1732       C  0.71196061  0.37829426  0.24556992    -0.07000
C1733       C  0.73983050  0.36450735  0.24095598    -0.18300
C1734       C  0.76135084  0.36351231  0.26362080     0.10100
S1735       S  0.67498904  0.41804978  0.27854557    -0.33200
S1736       S  0.79618718  0.34415666  0.25649627    -0.33200
H1737       H  0.79279956  0.34121125  0.22536653     0.28100
H1738       H  0.67159416  0.42582980  0.24837605     0.28100
H1739       H  0.72446653  0.40498783  0.31610586     0.18700
H1740       H  0.74399355  0.35244028  0.22035737     0.18700
C1741       C  0.87868553  0.20942535  0.38044130    -0.07100
C1742       C  0.85741903  0.22273277  0.39935469    -0.18200
C1743       C  0.85592376  0.25393997  0.40259816     0.10100
C1744       C  0.87557538  0.27223689  0.38594645    -0.07000
C1745       C  0.89912332  0.25866963  0.37023377    -0.18300
C1746       C  0.90119060  0.22755678  0.36783625     0.10100
S1747       S  0.82580816  0.26905112  0.42482880    -0.33200
S1748       S  0.93064443  0.21222337  0.34485021    -0.33200
H1749       H  0.93036213  0.18392682  0.35824722     0.28100
H1750       H  0.84046985  0.29578032  0.43227190     0.28100
H1751       H  0.83994059  0.20911939  0.40904370     0.18700
H1752       H  0.91435650  0.27237146  0.35740931     0.18700
C1753       C  0.70436112  0.24373772  0.38515171    -0.07100
C1754       C  0.69904246  0.27142970  0.39893414    -0.18200
C1755       C  0.72116359  0.29379028  0.39911233     0.10100
C1756       C  0.74914998  0.28805323  0.38524427    -0.07000
C1757       C  0.75518363  0.25919498  0.37449194    -0.18300
C1758       C  0.73324381  0.23718924  0.37403736     0.10100
S1759       S  0.71300491  0.32936582  0.41652019    -0.33200
S1760       S  0.74233582  0.20130930  0.35768554    -0.33200
H1761       H  0.77337350  0.20568470  0.35467518     0.28100
H1762       H  0.68513373  0.32142994  0.42872573     0.28100
H1763       H  0.67693422  0.27619482  0.40772825     0.18700
H1764       H  0.77671076  0.25424069  0.36448681     0.18700
C1765       C  0.97111537  0.32040331  0.12484555    -0.07100
C1766       C  0.98651264  0.29465694  0.11560757    -0.18200
C1767       C  0.01766344  0.29383815  0.11412170     0.10100
C1768       C  0.03450370  0.31905596  0.12304241    -0.07000
C1769       C  0.01928515  0.34527634  0.13137262    -0.18300
C1770       C  0.98782108  0.34616164  0.13256352     0.10100
S1771       S  0.03441041  0.26017608  0.09936257    -0.33200
S1772       S  0.97054259  0.38000384  0.14594002    -0.33200
H1773       H  0.94995853  0.36514161  0.16433453     0.28100
H1774       H  0.05674873  0.27509784  0.08315887     0.28100
H1775       H  0.97409659  0.27500709  0.10875949     0.18700
H1776       H  0.03195978  0.36473297  0.13826130     0.18700
C1777       C  0.80090447  0.24055468  0.11046149    -0.07100
C1778       C  0.77259525  0.24941288  0.12068428    -0.18200
C1779       C  0.74801015  0.23009975  0.11974831     0.10100
C1780       C  0.75206520  0.20039839  0.10903958    -0.07000
C1781       C  0.77976000  0.19277227  0.09589231    -0.18300
C1782       C  0.80395200  0.21271779  0.09598909     0.10100
S1783       S  0.71275393  0.24371870  0.13461203    -0.33200
S1784       S  0.83884673  0.20035351  0.08008961    -0.33200
H1785       H  0.84287994  0.22649921  0.06331164     0.28100
H1786       H  0.72077745  0.27393899  0.13758871     0.28100
H1787       H  0.77019328  0.27121380  0.13101345     0.18700
H1788       H  0.78311265  0.17060582  0.08667678     0.18700
C1789       C  0.88806828  0.19668479  0.25120353    -0.07100
C1790       C  0.90088808  0.19038826  0.22331563    -0.18200
C1791       C  0.90182709  0.21213845  0.20076243     0.10100
C1792       C  0.88941736  0.24085357  0.20633153    -0.07000
C1793       C  0.88003153  0.24787049  0.23552204    -0.18300
C1794       C  0.87904115  0.22619471  0.25784364     0.10100
S1795       S  0.91818325  0.20233168  0.16508977    -0.33200
S1796       S  0.86524992  0.23638062  0.29447040    -0.33200
H1797       H  0.86005063  0.26680681  0.28881989     0.28100
H1798       H  0.92800229  0.17354816  0.17284755     0.28100
H1799       H  0.90828920  0.16782877  0.21857058     0.18700
H1800       H  0.87168189  0.27003233  0.24053077     0.18700
C1801       C  0.88091033  0.36561750  0.28275617    -0.07100
C1802       C  0.86737132  0.38865815  0.26633393    -0.18200
C1803       C  0.86759156  0.38852479  0.23504656     0.10100
C1804       C  0.88229456  0.36526925  0.21960204    -0.07000
C1805       C  0.89926256  0.34456597  0.23596800    -0.18300
C1806       C  0.89858158  0.34437037  0.26734611     0.10100
S1807       S  0.84579786  0.41656908  0.21618228    -0.33200
S1808       S  0.91656652  0.31367830  0.28608936    -0.33200
H1809       H  0.92100388  0.32890004  0.31323537     0.28100
H1810       H  0.86041584  0.41388933  0.18847993     0.28100
H1811       H  0.85345141  0.40489838  0.27784192     0.18700
H1812       H  0.91047853  0.32646372  0.22429317     0.18700
C1813       C  0.78236368  0.36404581  0.11943398    -0.07100
C1814       C  0.76524944  0.34614725  0.10001138    -0.18200
C1815       C  0.73399891  0.34795421  0.09958681     0.10100
C1816       C  0.71929344  0.36822366  0.11881972    -0.07000
C1817       C  0.73644569  0.38912197  0.13484837    -0.18300
C1818       C  0.76787458  0.38727339  0.13529104     0.10100
S1819       S  0.71389636  0.32117398  0.07702070    -0.33200
S1820       S  0.78768616  0.41191129  0.16014668    -0.33200
H1821       H  0.81228596  0.41555099  0.14095352     0.28100
H1822       H  0.68688974  0.33737016  0.07611551     0.28100
H1823       H  0.77607703  0.32841050  0.08746796     0.18700
H1824       H  0.72535042  0.40466505  0.14981811     0.18700
C1825       C  0.62656081  0.81846640  0.53430517    -0.07100
C1826       C  0.64593148  0.79857286  0.51954462    -0.18200
C1827       C  0.64869387  0.79806898  0.48844031     0.10100
C1828       C  0.63171240  0.81826391  0.47078483    -0.07000
C1829       C  0.61317078  0.83901930  0.48558770    -0.18300
C1830       C  0.60992912  0.83892932  0.51682401     0.10100
S1831       S  0.67410360  0.77038787  0.47345145    -0.33200
S1832       S  0.58210000  0.86349800  0.53246677    -0.33200
H1833       H  0.56875782  0.84075392  0.54943367     0.28100
H1834       H  0.68454761  0.78798488  0.44997402     0.28100
H1835       H  0.65916143  0.78291736  0.53241866     0.18700
H1836       H  0.59956840  0.85427374  0.47263532     0.18700
C1837       C  0.61068391  0.69497161  0.75040436    -0.07100
C1838       C  0.60820608  0.68507557  0.72053850    -0.18200
C1839       C  0.60779270  0.70513481  0.69666764     0.10100
C1840       C  0.61017971  0.73596570  0.70239028    -0.07000
C1841       C  0.61026689  0.74614488  0.73206890    -0.18300
C1842       C  0.60977380  0.72613557  0.75604208     0.10100
S1843       S  0.60802988  0.68989459  0.65934073    -0.33200
S1844       S  0.60868400  0.74195752  0.79303357    -0.33200
H1845       H  0.58872671  0.72033050  0.80391486     0.28100
H1846       H  0.58892831  0.71171961  0.64736637     0.28100
H1847       H  0.60841525  0.66142035  0.71542051     0.18700
H1848       H  0.61183525  0.76988710  0.73660492     0.18700
C1849       C  0.83395580  0.61272262  0.53296143    -0.07100
C1850       C  0.80715629  0.60877382  0.51702631    -0.18200
C1851       C  0.80615011  0.60980035  0.48582861     0.10100
C1852       C  0.83281871  0.61414886  0.46914043    -0.07000
C1853       C  0.85969714  0.61844544  0.48501791    -0.18300
C1854       C  0.86064077  0.61749628  0.51645124     0.10100
S1855       S  0.76951695  0.60697328  0.46918149    -0.33200
S1856       S  0.89687637  0.62100459  0.53377894    -0.33200
H1857       H  0.89245487  0.59692806  0.55334517     0.28100
H1858       H  0.77330563  0.63312306  0.45244025     0.28100
H1859       H  0.78634740  0.60563957  0.52903232     0.18700
H1860       H  0.88040207  0.62161944  0.47285951     0.18700
C1861       C  0.74376546  0.68658247  0.61285225    -0.07100
C1862       C  0.75364851  0.71616537  0.61055047    -0.18200
C1863       C  0.73349683  0.74015341  0.61168379     0.10100
C1864       C  0.70259467  0.73467191  0.61612076    -0.07000
C1865       C  0.69270936  0.70481510  0.61654336    -0.18300
C1866       C  0.71283849  0.68088453  0.61501067     0.10100
S1867       S  0.74885625  0.77701041  0.60805880    -0.33200
S1868       S  0.69800409  0.64379310  0.61961759    -0.33200
H1869       H  0.71952385  0.62946933  0.60169963     0.28100
H1870       H  0.72507177  0.78735368  0.59025498     0.28100
H1871       H  0.77747969  0.72068373  0.60923825     0.18700
H1872       H  0.66919271  0.69988680  0.61987388     0.18700
C1873       C  0.74980207  0.60418581  0.70726028    -0.07100
C1874       C  0.75473606  0.61714436  0.73544371    -0.18200
C1875       C  0.73212463  0.61856257  0.75705463     0.10100
C1876       C  0.70344549  0.60657833  0.75080507    -0.07000
C1877       C  0.69928365  0.59088269  0.72390868    -0.18300
C1878       C  0.72216981  0.58922635  0.70229551     0.10100
S1879       S  0.74026388  0.63704297  0.79207628    -0.33200
S1880       S  0.71443425  0.56794893  0.66893111    -0.33200
H1881       H  0.74360374  0.55620018  0.66666834     0.28100
H1882       H  0.77162232  0.63761219  0.78908657     0.28100
H1883       H  0.77587131  0.62802315  0.74004010     0.18700
H1884       H  0.67768287  0.58097719  0.71910413     0.18700
C1885       C  0.66841076  0.86979207  0.96892189    -0.07100
C1886       C  0.68474296  0.89186727  0.98421102    -0.18200
C1887       C  0.68534085  0.89355481  0.01551051     0.10100
C1888       C  0.66891493  0.87259803  0.03262316    -0.07000
C1889       C  0.65212137  0.85077890  0.01737514    -0.18300
C1890       C  0.65210507  0.84877943  0.98601831     0.10100
S1891       S  0.70621551  0.92372348  0.03269241    -0.33200
S1892       S  0.63216800  0.81786124  0.96956189    -0.33200
H1893       H  0.65544358  0.81021289  0.94974844     0.28100
H1894       H  0.72156132  0.93311262  0.00697983     0.28100
H1895       H  0.69687246  0.90836543  0.97147202     0.18700
H1896       H  0.63977868  0.83430767  0.03001235     0.18700
C1897       C  0.61737381  0.86691277  0.78522745    -0.07100
C1898       C  0.63212765  0.88861264  0.76824438    -0.18200
C1899       C  0.63222125  0.88712439  0.73688804     0.10100
C1900       C  0.61807670  0.86292360  0.72230054    -0.07000
C1901       C  0.59945610  0.84429852  0.73924288    -0.18300
C1902       C  0.59879108  0.84623346  0.77038952     0.10100
S1903       S  0.65339994  0.91471948  0.71729857    -0.33200
S1904       S  0.57592061  0.81994829  0.79012710    -0.33200
H1905       H  0.57415334  0.83702439  0.81653761     0.28100
H1906       H  0.63434430  0.91526716  0.69232225     0.28100
H1907       H  0.64607564  0.90498864  0.77934004     0.18700
H1908       H  0.58758409  0.82617546  0.72834019     0.18700
C1909       C  0.62135131  0.70898025  0.88407460    -0.07100
C1910       C  0.59882124  0.72712178  0.87176181    -0.18200
C1911       C  0.60121712  0.75859515  0.87284557     0.10100
C1912       C  0.62718086  0.77167607  0.88524889    -0.07000
C1913       C  0.64657737  0.75358708  0.90186092    -0.18300
C1914       C  0.64341304  0.72264902  0.90197529     0.10100
S1915       S  0.57253430  0.78152495  0.85646264    -0.33200
S1916       S  0.66977674  0.70156496  0.92350539    -0.33200
H1917       H  0.65216647  0.67559057  0.92475162     0.28100
H1918       H  0.55298446  0.75811074  0.84884939     0.28100
H1919       H  0.58109280  0.71678463  0.85891167     0.18700
H1920       H  0.66580932  0.76343379  0.91289661     0.18700
C1921       C  0.87061561  0.66574587  0.96889730    -0.07100
C1922       C  0.88460291  0.64200022  0.98393878    -0.18200
C1923       C  0.88600314  0.64094438  0.01528192     0.10100
C1924       C  0.87341392  0.66446402  0.03259737    -0.07000
C1925       C  0.85759063  0.68700981  0.01748103    -0.18300
C1926       C  0.85553022  0.68772242  0.98621884     0.10100
S1927       S  0.90421525  0.60887346  0.03125174    -0.33200
S1928       S  0.83276978  0.71662625  0.96935176    -0.33200
H1929       H  0.81954341  0.72758898  0.99573459     0.28100
H1930       H  0.92551753  0.62577896  0.04691979     0.28100
H1931       H  0.89539320  0.62439951  0.97119204     0.18700
H1932       H  0.84672861  0.70448122  0.03028354     0.18700
C1933       C  0.88184594  0.61927011  0.78093042    -0.07100
C1934       C  0.89935608  0.63842511  0.76345125    -0.18200
C1935       C  0.89901158  0.63666484  0.73232802     0.10100
C1936       C  0.88059014  0.61552284  0.71794740    -0.07000
C1937       C  0.86698575  0.59334117  0.73530174    -0.18300
C1938       C  0.86797725  0.59467610  0.76670131     0.10100
S1939       S  0.92022287  0.66392066  0.71214108    -0.33200
S1940       S  0.84886668  0.56608624  0.78698674    -0.33200
H1941       H  0.86852511  0.56675858  0.81149919     0.28100
H1942       H  0.92239222  0.64672442  0.68583809     0.28100
H1943       H  0.91093208  0.65695795  0.77398518     0.18700
H1944       H  0.85323984  0.57652667  0.72454265     0.18700
C1945       C  0.78192568  0.61344252  0.87826250    -0.07100
C1946       C  0.76459716  0.62685861  0.90082622    -0.18200
C1947       C  0.73312314  0.62473308  0.90043980     0.10100
C1948       C  0.71873548  0.61049446  0.87611471    -0.07000
C1949       C  0.73636188  0.59299570  0.85683549    -0.18300
C1950       C  0.76760461  0.59409441  0.85790080     0.10100
S1951       S  0.71284259  0.64181559  0.93052381    -0.33200
S1952       S  0.78793077  0.57233910  0.83090715    -0.33200
H1953       H  0.81485365  0.57180576  0.84724694     0.28100
H1954       H  0.68863477  0.62186991  0.92913716     0.28100
H1955       H  0.77533117  0.64097762  0.91736321     0.18700
H1956       H  0.72575394  0.58076406  0.83875902     0.18700
C1957       C  0.79510115  0.74664891  0.88533060    -0.07100
C1958       C  0.80492420  0.77608892  0.89093537    -0.18200
C1959       C  0.78486173  0.80014311  0.89213338     0.10100
C1960       C  0.75411503  0.79499262  0.88759106    -0.07000
C1961       C  0.74390989  0.76558309  0.88435597    -0.18300
C1962       C  0.76382161  0.74132276  0.88337952     0.10100
S1963       S  0.80015091  0.83713832  0.89591501    -0.33200
S1964       S  0.74851428  0.70423738  0.87848577    -0.33200
H1965       H  0.71826140  0.71248906  0.87559251     0.28100
H1966       H  0.77776690  0.84735485  0.91551073     0.28100
H1967       H  0.82862406  0.78081372  0.89286945     0.18700
H1968       H  0.72018992  0.76185928  0.88101239     0.18700
C1969       C  0.87226256  0.71016950  0.61673889    -0.07100
C1970       C  0.85335054  0.72753331  0.59881430    -0.18200
C1971       C  0.85653746  0.75844995  0.59755143     0.10100
C1972       C  0.87796663  0.77269347  0.61575786    -0.07000
C1973       C  0.90025577  0.75513068  0.62918749    -0.18300
C1974       C  0.89799096  0.72371220  0.62913007     0.10100
S1975       S  0.83076576  0.77895797  0.57465060    -0.33200
S1976       S  0.92642421  0.70160703  0.64691505    -0.33200
H1977       H  0.94649046  0.72516959  0.65243763     0.28100
H1978       H  0.84799751  0.80520879  0.57384224     0.28100
H1979       H  0.83439000  0.71719733  0.58762202     0.18700
H1980       H  0.91747548  0.76596139  0.64247286     0.18700
C1981       C  0.88574297  0.78201667  0.74835984    -0.07100
C1982       C  0.89650420  0.79172876  0.77644908    -0.18200
C1983       C  0.89834962  0.77238291  0.80085030     0.10100
C1984       C  0.88899156  0.74259933  0.79747085    -0.07000
C1985       C  0.88119497  0.73207374  0.76893655    -0.18300
C1986       C  0.87998155  0.75114189  0.74432452     0.10100
S1987       S  0.90893498  0.78787375  0.83650272     0.00400
S1988       S  0.86897939  0.73468676  0.70922132    -0.33200
H1989       H  0.89227335  0.74860428  0.69345747     0.28100
H1990       H  0.92796464  0.76399155  0.84387071     0.28100
H1991       H  0.90193138  0.81501468  0.78007077     0.18700
H1992       H  0.87438840  0.70901422  0.76612812     0.18700
C1993       C  0.78007440  0.87193928  0.62377365    -0.07100
C1994       C  0.76305828  0.88990191  0.64314258    -0.18200
C1995       C  0.73182619  0.88850783  0.64317481     0.10100
C1996       C  0.71704910  0.86896298  0.62334629    -0.07000
C1997       C  0.73369652  0.85572942  0.60018081    -0.18300
C1998       C  0.76516496  0.85753000  0.59992208     0.10100
S1999       S  0.71226254  0.91003485  0.67088418    -0.33200
S2000       S  0.78494189  0.83922810  0.57013781    -0.33200
H2001       H  0.80999361  0.85811492  0.57142802     0.28100
H2002       H  0.68478135  0.91030591  0.65549597     0.28100
H2003       H  0.77418537  0.90221269  0.66086773     0.18700
H2004       H  0.72246684  0.84179997  0.58382102     0.18700
C2005       C  0.79154590  0.87186413  0.74810038    -0.07100
C2006       C  0.79401065  0.89239476  0.77182936    -0.18200
C2007       C  0.77133502  0.89481577  0.79368895     0.10100
C2008       C  0.74578705  0.87618648  0.79176763    -0.07000
C2009       C  0.74221403  0.85806922  0.76643007    -0.18300
C2010       C  0.76444115  0.85579021  0.74479599     0.10100
S2011       S  0.77530083  0.92160554  0.82371742    -0.33200
S2012       S  0.75667525  0.83147633  0.71364211    -0.33200
H2013       H  0.76068156  0.85476178  0.69332654     0.28100
H2014       H  0.80228280  0.93432517  0.81383180     0.28100
H2015       H  0.81432584  0.90533166  0.77410677     0.18700
H2016       H  0.72247758  0.84423778  0.76400510     0.18700
C2017       C  0.16605552  0.61529603  0.53438269    -0.07100
C2018       C  0.18494649  0.63549628  0.51966922    -0.18200
C2019       C  0.18579362  0.63728693  0.48856808     0.10100
C2020       C  0.16836463  0.61746068  0.47117234    -0.07000
C2021       C  0.14817735  0.59836405  0.48573986    -0.18300
C2022       C  0.14658625  0.59721819  0.51710537     0.10100
S2023       S  0.20882303  0.66617042  0.47268341    -0.33200
S2024       S  0.12112284  0.57111788  0.53429035    -0.33200
H2025       H  0.10476575  0.56406782  0.50833407     0.28100
H2026       H  0.18893838  0.67278819  0.44920704     0.28100
H2027       H  0.19908809  0.65038795  0.53257079     0.18700
H2028       H  0.13448183  0.58338719  0.47251771     0.18700
C2029       C  0.46899396  0.81555095  0.63104841    -0.07100
C2030       C  0.48262158  0.84105328  0.61879614    -0.18200
C2031       C  0.51386772  0.84424228  0.61776322     0.10100
C2032       C  0.53226711  0.82137768  0.62938983    -0.07000
C2033       C  0.51882512  0.79644012  0.64250575    -0.18300
C2034       C  0.48762743  0.79330238  0.64387019     0.10100
S2035       S  0.52814572  0.87747857  0.60014998    -0.33200
S2036       S  0.47257093  0.76113014  0.66300927    -0.33200
H2037       H  0.49970670  0.74559982  0.66677615     0.28100
H2038       H  0.55764566  0.86802853  0.59541398     0.28100
H2039       H  0.46885513  0.85838698  0.60902507     0.18700
H2040       H  0.53307965  0.77925341  0.65182603     0.18700
C2041       C  0.37514927  0.82131734  0.53590937    -0.07100
C2042       C  0.36383642  0.79679632  0.51999332    -0.18200
C2043       C  0.36196507  0.79695633  0.48884888     0.10100
C2044       C  0.37262020  0.82172985  0.47261087    -0.07000
C2045       C  0.38287539  0.84687161  0.48850961    -0.18300
C2046       C  0.38444609  0.84684559  0.51993655     0.10100
S2047       S  0.34445323  0.76535624  0.47113229    -0.33200
S2048       S  0.40039265  0.87908863  0.53812453    -0.33200
H2049       H  0.41528801  0.86306597  0.56063778     0.28100
H2050       H  0.32822118  0.78308452  0.45093792     0.28100
H2051       H  0.35592499  0.77741124  0.53201470     0.18700
H2052       H  0.39116129  0.86600817  0.47637472     0.18700
C2053       C  0.29980869  0.73167825  0.61078070    -0.07100
C2054       C  0.27109456  0.74287847  0.61666551    -0.18200
C2055       C  0.24621451  0.72404120  0.61906720     0.10100
C2056       C  0.24993858  0.69283578  0.61451586    -0.07000
C2057       C  0.27846770  0.68218400  0.60588239    -0.18300
C2058       C  0.30335352  0.70110948  0.60434497     0.10100
S2059       S  0.21114655  0.74052352  0.63097848    -0.33200
S2060       S  0.33952679  0.68431618  0.59815830    -0.33200
H2061       H  0.35093429  0.70811526  0.58138191     0.28100
H2062       H  0.22003281  0.77062454  0.63052797     0.28100
H2063       H  0.26873766  0.76634191  0.62207427     0.18700
H2064       H  0.28202566  0.65854028  0.60215699     0.18700
C2065       C  0.46539749  0.61229413  0.83042833    -0.07100
C2066       C  0.48138006  0.61812559  0.85694347    -0.18200
C2067       C  0.51293533  0.61923929  0.85744144     0.10100
C2068       C  0.52955131  0.61382130  0.83090526    -0.07000
C2069       C  0.51349887  0.60802718  0.80451566    -0.18300
C2070       C  0.48214697  0.60756680  0.80383837     0.10100
S2071       S  0.53035075  0.62889068  0.89244248    -0.33200
S2072       S  0.46523563  0.60230337  0.76768207    -0.33200
H2073       H  0.44921499  0.62923013  0.76979747     0.28100
H2074       H  0.54978678  0.64986560  0.87957788     0.28100
H2075       H  0.46922114  0.62205796  0.87752793     0.18700
H2076       H  0.52550469  0.60398754  0.78385446     0.18700
C2077       C  0.24762924  0.60236693  0.70429089    -0.07100
C2078       C  0.23880849  0.61321225  0.73237688    -0.18200
C2079       C  0.25888431  0.61490209  0.75638053     0.10100
C2080       C  0.28889741  0.60504375  0.75238715    -0.07000
C2081       C  0.29677955  0.59174738  0.72481359    -0.18300
C2082       C  0.27654178  0.59028737  0.70089245     0.10100
S2083       S  0.24593553  0.63279688  0.79032788    -0.33200
S2084       S  0.28998216  0.57619719  0.66564084    -0.33200
H2085       H  0.26486633  0.55795384  0.66068693     0.28100
H2086       H  0.21505910  0.63096675  0.78426095     0.28100
H2087       H  0.21655121  0.62255340  0.73481337     0.18700
H2088       H  0.31938460  0.58372096  0.72121994     0.18700
C2089       C  0.38684338  0.68458047  0.74692166    -0.07100
C2090       C  0.38744708  0.71435645  0.75648310    -0.18200
C2091       C  0.38862869  0.73770797  0.73598070     0.10100
C2092       C  0.38768142  0.73130910  0.70496411    -0.07000
C2093       C  0.38980540  0.70130021  0.69561677    -0.18300
C2094       C  0.38965370  0.67795798  0.71625933     0.10100
S2095       S  0.39059017  0.77494716  0.75104892    -0.33200
S2096       S  0.38921162  0.64029311  0.70200290    -0.33200
H2097       H  0.40900005  0.62911107  0.72364788     0.28100
H2098       H  0.40983390  0.78522588  0.72846794     0.28100
H2099       H  0.38586185  0.71947604  0.78013783     0.18700
H2100       H  0.38961627  0.69574780  0.67203314     0.18700
C2101       C  0.02951314  0.86496726  0.67500820    -0.07100
C2102       C  0.01409763  0.84138389  0.68869756    -0.18200
C2103       C  0.98279822  0.83956752  0.68778693     0.10100
C2104       C  0.96615029  0.86217719  0.67335178    -0.07000
C2105       C  0.98153784  0.88519914  0.65883458    -0.18300
C2106       C  0.01281966  0.88712665  0.65992935     0.10100
S2107       S  0.96557382  0.80740320  0.70469814    -0.33200
S2108       S  0.02961715  0.91982427  0.64397932    -0.33200
H2109       H  0.05039136  0.92391660  0.66728255     0.28100
H2110       H  0.94192263  0.80524456  0.68401368     0.28100
H2111       H  0.02659079  0.82399760  0.69998437     0.18700
H2112       H  0.96901795  0.90280239  0.64794023     0.18700
C2113       C  0.11817657  0.77090362  0.62587589    -0.07100
C2114       C  0.13753109  0.75689146  0.60545486    -0.18200
C2115       C  0.13766613  0.72575463  0.60197133     0.10100
C2116       C  0.11980067  0.70810826  0.62096853    -0.07000
C2117       C  0.09799138  0.72225736  0.63868652    -0.18300
C2118       C  0.09636818  0.75359397  0.64053917     0.10100
S2119       S  0.16379086  0.70960286  0.57574202    -0.33200
S2120       S  0.06906414  0.77111168  0.66472582    -0.33200
H2121       H  0.05278171  0.74505765  0.67104597     0.28100
H2122       H  0.14605900  0.68461302  0.56891975     0.28100
H2123       H  0.15396281  0.77009076  0.59360375     0.18700
H2124       H  0.08404839  0.70878754  0.65307770     0.18700
C2125       C  0.21806886  0.86580111  0.63323526    -0.07100
C2126       C  0.22854724  0.84838122  0.60935129    -0.18200
C2127       C  0.25935503  0.84433126  0.60496371     0.10100
C2128       C  0.27990395  0.85790937  0.62485072    -0.07000
C2129       C  0.26943873  0.87917489  0.64534494    -0.18300
C2130       C  0.23869874  0.88322760  0.64980030     0.10100
S2131       S  0.27120186  0.81907480  0.57575805    -0.33200
S2132       S  0.22715779  0.90803168  0.67957672    -0.33200
H2133       H  0.19786016  0.91246096  0.66889554     0.28100
H2134       H  0.30071695  0.82985231  0.57398526     0.28100
H2135       H  0.21291956  0.83521783  0.59628492     0.18700
H2136       H  0.28502985  0.89008376  0.66032452     0.18700
C2137       C  0.12379507  0.66650250  0.97166656    -0.07100
C2138       C  0.12840934  0.63925107  0.98643514    -0.18200
C2139       C  0.13044200  0.63799298  0.01770446     0.10100
C2140       C  0.12741610  0.66452666  0.03470329    -0.07000
C2141       C  0.12176001  0.69144610  0.01984593    -0.18300
C2142       C  0.11951077  0.69279692  0.98883787     0.10100
S2143       S  0.13822798  0.60225596  0.03424640    -0.33200
S2144       S  0.10969314  0.72824963  0.97207242    -0.33200
H2145       H  0.10393907  0.74419094  0.99860972     0.28100
H2146       H  0.15899548  0.61353227  0.05505504     0.28100
H2147       H  0.13145878  0.61895406  0.97352045     0.18700
H2148       H  0.11852955  0.71169170  0.03274629     0.18700
C2149       C  0.03145030  0.65929886  0.88174596    -0.07100
C2150       C  0.01643595  0.64846430  0.85625498    -0.18200
C2151       C  0.98498278  0.64923990  0.85409011     0.10100
C2152       C  0.96772477  0.66012120  0.87835446    -0.07000
C2153       C  0.98277166  0.67023008  0.90405002    -0.18300
C2154       C  0.01406781  0.66964938  0.90616988     0.10100
S2155       S  0.96846603  0.63828666  0.81897446    -0.33200
S2156       S  0.03025557  0.68148656  0.94121787    -0.33200
H2157       H  0.05301541  0.65972366  0.94119811     0.28100
H2158       H  0.94672026  0.66105494  0.81896833     0.28100
H2159       H  0.02929459  0.64063748  0.83725806     0.18700
H2160       H  0.96994695  0.67831238  0.92300746     0.18700
C2161       C  0.12303299  0.61254611  0.72207496    -0.07100
C2162       C  0.10138480  0.63172954  0.73412675    -0.18200
C2163       C  0.09893474  0.63547331  0.76511276     0.10100
C2164       C  0.11868544  0.61990176  0.78433070    -0.07000
C2165       C  0.13679224  0.59726747  0.77240402    -0.18300
C2166       C  0.13896096  0.59329623  0.74141871     0.10100
S2167       S  0.07274678  0.66310585  0.77868012    -0.33200
S2168       S  0.16541243  0.56607060  0.72758356    -0.33200
H2169       H  0.15232356  0.56330310  0.69912196     0.28100
H2170       H  0.07295736  0.65366061  0.80852376     0.28100
H2171       H  0.08888715  0.64642305  0.71950827     0.18700
H2172       H  0.15181600  0.58500316  0.78690830     0.18700
C2173       C  0.21684893  0.61368066  0.88027648    -0.07100
C2174       C  0.23386520  0.62611347  0.90356826    -0.18200
C2175       C  0.26527706  0.62418340  0.90334086     0.10100
C2176       C  0.27993618  0.61024488  0.87905157    -0.07000
C2177       C  0.26270491  0.59407267  0.85835618    -0.18300
C2178       C  0.23132624  0.59526643  0.85905339     0.10100
S2179       S  0.28546308  0.64117484  0.93372613    -0.33200
S2180       S  0.21083386  0.57478673  0.83092548    -0.33200
H2181       H  0.18341657  0.57457822  0.84638154     0.28100
H2182       H  0.31260674  0.62605777  0.92850650     0.28100
H2183       H  0.22294070  0.63965291  0.92048568     0.18700
H2184       H  0.27366795  0.58257740  0.84001185     0.18700
C2185       C  0.10724046  0.74289639  0.80263060    -0.07100
C2186       C  0.11455285  0.73242033  0.77402551    -0.18200
C2187       C  0.11428813  0.75137949  0.74932895     0.10100
C2188       C  0.10732830  0.78203426  0.75370112    -0.07000
C2189       C  0.09652431  0.79137294  0.78183304    -0.18300
C2190       C  0.09634363  0.77212190  0.80625188     0.10100
S2191       S  0.12541386  0.73598299  0.71355518    -0.33200
S2192       S  0.08627850  0.78730653  0.84218022    -0.33200
H2193       H  0.06800988  0.76302463  0.84987010     0.28100
H2194       H  0.12341856  0.70566107  0.72136338     0.28100
H2195       H  0.12264901  0.70974623  0.77146747     0.18700
H2196       H  0.09015695  0.81443962  0.78553086     0.18700
C2197       C  0.33855550  0.86821484  0.97321847    -0.07100
C2198       C  0.32594822  0.89213499  0.98933291    -0.18200
C2199       C  0.32746887  0.89378068  0.02059956     0.10100
C2200       C  0.34080276  0.87030209  0.03709530    -0.07000
C2201       C  0.35478374  0.84704881  0.02108938    -0.18300
C2202       C  0.35375730  0.84566980  0.98959435     0.10100
S2203       S  0.31306556  0.92730171  0.03793226    -0.33200
S2204       S  0.37079847  0.81362034  0.97199946    -0.33200
H2205       H  0.34660345  0.80832877  0.95255420     0.28100
H2206       H  0.33518445  0.92854400  0.06030452     0.28100
H2207       H  0.31521477  0.91023177  0.97739034     0.18700
H2208       H  0.36540182  0.82901812  0.03321762     0.18700
C2209       C  0.24547234  0.79418424  0.89515153    -0.07100
C2210       C  0.25519773  0.76445190  0.89336068    -0.18200
C2211       C  0.23482477  0.74069759  0.89113924     0.10100
C2212       C  0.20361289  0.74676836  0.89068228    -0.07000
C2213       C  0.19408801  0.77653816  0.89498263    -0.18300
C2214       C  0.21455477  0.80014438  0.89708358     0.10100
S2215       S  0.24954849  0.70320379  0.88803659    -0.33200
S2216       S  0.19977000  0.83757853  0.89839376    -0.33200
H2217       H  0.22234460  0.84897947  0.91705651     0.28100
H2218       H  0.27919188  0.71106742  0.88106223     0.28100
H2219       H  0.27901615  0.76002825  0.89193251     0.18700
H2220       H  0.17041773  0.78186249  0.89494735     0.18700
C2221       C  0.20024505  0.87116571  0.75877463    -0.07100
C2222       C  0.22706242  0.85624839  0.75205127    -0.18200
C2223       C  0.25144458  0.85612684  0.77172629     0.10100
C2224       C  0.24935400  0.87169339  0.79945066    -0.07000
C2225       C  0.22306532  0.88822712  0.80533964    -0.18300
C2226       C  0.19878510  0.88842076  0.78523101     0.10100
S2227       S  0.28331748  0.83309543  0.76163363    -0.33200
S2228       S  0.16575009  0.90892826  0.79572613    -0.33200
H2229       H  0.16433684  0.92455359  0.76858715     0.28100
H2230       H  0.27647364  0.82974808  0.73111208     0.28100
H2231       H  0.22835469  0.84319430  0.73165368     0.18700
H2232       H  0.22100766  0.90045642  0.82618288     0.18700
C2233       C  0.37820041  0.70810497  0.87787495    -0.07100
C2234       C  0.39848546  0.72663025  0.86278043    -0.18200
C2235       C  0.39768371  0.75767720  0.86653292     0.10100
C2236       C  0.37536438  0.77048973  0.88482041    -0.07000
C2237       C  0.35843234  0.75174734  0.90330508    -0.18300
C2238       C  0.35978747  0.72073439  0.90018525     0.10100
S2239       S  0.42229936  0.77975843  0.84389822    -0.33200
S2240       S  0.33358640  0.69916405  0.92139592    -0.33200
H2241       H  0.35369630  0.67562523  0.92671390     0.28100
H2242       H  0.42732832  0.80133994  0.86625571     0.28100
H2243       H  0.41307151  0.71711862  0.84587808     0.18700
H2244       H  0.34145613  0.76136067  0.91775099     0.18700
C2245       C  0.37360543  0.86686699  0.78556740    -0.07100
C2246       C  0.35061896  0.88022514  0.76894410    -0.18200
C2247       C  0.34974445  0.87777604  0.73775049     0.10100
C2248       C  0.37245564  0.86177302  0.72256526    -0.07000
C2249       C  0.39748043  0.85198275  0.73884180    -0.18300
C2250       C  0.39813502  0.85409922  0.77019938     0.10100
S2251       S  0.31804963  0.89385912  0.71871120    -0.33200
S2252       S  0.42967876  0.83806159  0.78943772    -0.33200
H2253       H  0.42517633  0.85329715  0.81660484     0.28100
H2254       H  0.33275722  0.89748491  0.69119683     0.28100
H2255       H  0.33185483  0.89047128  0.78043310     0.18700
H2256       H  0.41534361  0.84019394  0.72740034     0.18700
C2257       C  0.37279821  0.15524780  0.53729477    -0.07100
C2258       C  0.39505368  0.13949003  0.52157954    -0.18200
C2259       C  0.39613744  0.14007056  0.49023317     0.10100
C2260       C  0.37439970  0.15643319  0.47444956    -0.07000
C2261       C  0.35111390  0.17055999  0.48992665    -0.18300
C2262       C  0.34977230  0.16973811  0.52109159     0.10100
S2263       S  0.42616898  0.12145243  0.47051548    -0.33200
S2264       S  0.31798531  0.18743104  0.53877003    -0.33200
H2265       H  0.31733050  0.16831276  0.56357167     0.28100
H2266       H  0.44054128  0.10973102  0.49586041     0.28100
H2267       H  0.41242141  0.12808038  0.53385115     0.18700
H2268       H  0.33398677  0.18248437  0.47763856     0.18700
C2269       C  0.16884546  0.45885382  0.62949800    -0.07100
C2270       C  0.14071738  0.47283164  0.62660780    -0.18200
C2271       C  0.13788343  0.50419546  0.62727566     0.10100
C2272       C  0.16376189  0.52219803  0.63029886    -0.07000
C2273       C  0.19151410  0.50805204  0.63432677    -0.18300
C2274       C  0.19423177  0.47702568  0.63450148     0.10100
S2275       S  0.10120276  0.51987609  0.62184500    -0.33200
S2276       S  0.23062000  0.46203506  0.64289900    -0.33200
H2277       H  0.21926784  0.44465174  0.66636589     0.28100
H2278       H  0.10186771  0.53591944  0.64893178     0.28100
H2279       H  0.12094058  0.45931800  0.62301490     0.18700
H2280       H  0.21148238  0.52139069  0.63764307     0.18700
C2281       C  0.17533003  0.37067785  0.53167025    -0.07100
C2282       C  0.14809738  0.36472767  0.51707031    -0.18200
C2283       C  0.14587034  0.36487553  0.48560774     0.10100
C2284       C  0.17162818  0.37100265  0.46809769    -0.07000
C2285       C  0.19862446  0.37733183  0.48288106    -0.18300
C2286       C  0.20069153  0.37777393  0.51400113     0.10100
S2287       S  0.10975947  0.35827195  0.46857137    -0.33200
S2288       S  0.23631057  0.38907047  0.52937820    -0.33200
H2289       H  0.22363260  0.40819762  0.55099480     0.28100
H2290       H  0.09435321  0.35057780  0.49481056     0.28100
H2291       H  0.12855353  0.35971938  0.53039597     0.18700
H2292       H  0.21854267  0.38234974  0.47005789     0.18700
C2293       C  0.30166082  0.24313634  0.61592377    -0.07100
C2294       C  0.30975815  0.27201997  0.60681974    -0.18200
C2295       C  0.28838223  0.29464152  0.60361026     0.10100
C2296       C  0.25801607  0.28859000  0.61031653    -0.07000
C2297       C  0.24957239  0.25888510  0.61546950    -0.18300
C2298       C  0.27082031  0.23620234  0.61861524     0.10100
S2299       S  0.30180376  0.33072172  0.59216728    -0.33200
S2300       S  0.25760518  0.19926182  0.62779691    -0.33200
H2301       H  0.22675816  0.20455727  0.62418098     0.28100
H2302       H  0.27771028  0.33583216  0.57253695     0.28100
H2303       H  0.33311710  0.27754014  0.60343562     0.18700
H2304       H  0.22623159  0.25368356  0.61926574     0.18700
C2305       C  0.37331246  0.52071496  0.83235027    -0.07100
C2306       C  0.38660570  0.50624513  0.80798809    -0.18200
C2307       C  0.39070015  0.47549995  0.80767063     0.10100
C2308       C  0.38023096  0.45813944  0.83181547    -0.07000
C2309       C  0.36757464  0.47257026  0.85672640    -0.18300
C2310       C  0.36388526  0.50374511  0.85716630     0.10100
S2311       S  0.41042031  0.45996173  0.77602193    -0.33200
S2312       S  0.34531349  0.52031492  0.88888029    -0.33200
H2313       H  0.32946487  0.54153483  0.87205435     0.28100
H2314       H  0.42633648  0.43891113  0.79298539     0.28100
H2315       H  0.39467942  0.51917073  0.78923920     0.18700
H2316       H  0.35922878  0.45945485  0.87519026     0.18700
C2317       C  0.25938650  0.38223055  0.69931360    -0.07100
C2318       C  0.24996862  0.37372049  0.72779220    -0.18200
C2319       C  0.26954229  0.37398372  0.75209410     0.10100
C2320       C  0.30002104  0.38155059  0.74740607    -0.07000
C2321       C  0.30827186  0.39380705  0.71962435    -0.18300
C2322       C  0.28817395  0.39417944  0.69545548     0.10100
S2323       S  0.25494710  0.36291399  0.78804836    -0.33200
S2324       S  0.30044066  0.40656270  0.65917089    -0.33200
H2325       H  0.32849259  0.41745918  0.66841952     0.28100
H2326       H  0.22434292  0.36472604  0.78070846     0.28100
H2327       H  0.22754053  0.36503977  0.73058303     0.18700
H2328       H  0.33112452  0.40091656  0.71608966     0.18700
C2329       C  0.40011128  0.25865125  0.68866271    -0.07100
C2330       C  0.38063306  0.28280327  0.68468593    -0.18200
C2331       C  0.37914181  0.30583408  0.70557300     0.10100
C2332       C  0.39668816  0.30441911  0.73170228    -0.07000
C2333       C  0.41884815  0.28228786  0.73399097    -0.18300
C2334       C  0.42109949  0.25957518  0.71229135     0.10100
S2335       S  0.35320309  0.33569975  0.69850743    -0.33200
S2336       S  0.44956755  0.23159154  0.71711690    -0.33200
H2337       H  0.45236301  0.22439810  0.68668170     0.28100
H2338       H  0.37190932  0.35768357  0.71099896     0.28100
H2339       H  0.36502489  0.28274633  0.66610150     0.18700
H2340       H  0.43316319  0.28164905  0.75351338     0.18700
C2341       C  0.12675083  0.32011254  0.97068604    -0.07100
C2342       C  0.12563204  0.29292915  0.98610119    -0.18200
C2343       C  0.12739022  0.29167771  0.01725030     0.10100
C2344       C  0.12926625  0.31831055  0.03435386    -0.07000
C2345       C  0.13138138  0.34557449  0.01898836    -0.18300
C2346       C  0.12999783  0.34678949  0.98755121     0.10100
S2347       S  0.12921691  0.25509015  0.03354479    -0.33200
S2348       S  0.13080576  0.38314169  0.97060780    -0.33200
H2349       H  0.10765614  0.37693213  0.95017652     0.28100
H2350       H  0.15557622  0.26194968  0.04928731     0.28100
H2351       H  0.12415014  0.27215409  0.97368056     0.18700
H2352       H  0.13295409  0.36623810  0.03155310     0.18700
C2353       C  0.22467948  0.35319794  0.88071243    -0.07100
C2354       C  0.24414524  0.33401904  0.89617196    -0.18200
C2355       C  0.27513558  0.33668586  0.89358513     0.10100
C2356       C  0.28719823  0.35925478  0.87549107    -0.07000
C2357       C  0.26803597  0.38123185  0.86381958    -0.18300
C2358       C  0.23667495  0.37837294  0.86615584     0.10100
S2359       S  0.29813478  0.30873001  0.91125224    -0.33200
S2360       S  0.21253660  0.40444508  0.84706399    -0.33200
H2361       H  0.23527106  0.42381780  0.83741753     0.28100
H2362       H  0.32431267  0.32609546  0.91242292     0.28100
H2363       H  0.23513697  0.31506877  0.90810879     0.18700
H2364       H  0.27745682  0.39863472  0.85003478     0.18700
C2365       C  0.12794564  0.36214867  0.78448372    -0.07100
C2366       C  0.14868379  0.38272013  0.77332843    -0.18200
C2367       C  0.15241711  0.38671653  0.74257649     0.10100
C2368       C  0.13597749  0.36889584  0.72223001    -0.07000
C2369       C  0.11250512  0.35136800  0.73320366    -0.18300
C2370       C  0.10813300  0.34786662  0.76412241     0.10100
S2371       S  0.18035116  0.41310871  0.73053010    -0.33200
S2372       S  0.07900865  0.32225684  0.77521413    -0.33200
H2373       H  0.08328074  0.32299323  0.80613768     0.28100
H2374       H  0.16894430  0.41669991  0.70146188     0.28100
H2375       H  0.16366400  0.39414239  0.78862907     0.18700
H2376       H  0.09951938  0.33788730  0.71778959     0.18700
C2377       C  0.33157284  0.10944299  0.97650396    -0.07100
C2378       C  0.34821936  0.13138874  0.99150353    -0.18200
C2379       C  0.34846662  0.13290809  0.02283332     0.10100
C2380       C  0.33277001  0.11118537  0.03957550    -0.07000
C2381       C  0.31683926  0.08887560  0.02418491    -0.18300
C2382       C  0.31601959  0.08785180  0.99311390     0.10100
S2383       S  0.36683601  0.16448406  0.03975181    -0.33200
S2384       S  0.29472436  0.05829706  0.97588473    -0.33200
H2385       H  0.31564947  0.05310637  0.95307803     0.28100
H2386       H  0.34293915  0.17052394  0.05934211     0.28100
H2387       H  0.35969749  0.14837418  0.97875552     0.18700
H2388       H  0.30479627  0.07191203  0.03642930     0.18700
C2389       C  0.33645986  0.95866813  0.87789698    -0.07100
C2390       C  0.35164253  0.97309345  0.90137936    -0.18200
C2391       C  0.35335260  0.00430596  0.90293434     0.10100
C2392       C  0.33959656  0.02161198  0.88047603    -0.07000
C2393       C  0.32562805  0.00724478  0.85633813    -0.18300
C2394       C  0.32430832  0.97606430  0.85455560     0.10100
S2395       S  0.37183291  0.02049694  0.93500699    -0.33200
S2396       S  0.30709590  0.95987069  0.82182960    -0.33200
H2397       H  0.32591338  0.93466244  0.82070130     0.28100
H2398       H  0.37836887  0.04824805  0.92218238     0.28100
H2399       H  0.36122802  0.95999751  0.91930920     0.18700
H2400       H  0.31510592  0.02046307  0.83901621     0.18700
C2401       C  0.24079293  0.18539673  0.89753752    -0.07100
C2402       C  0.21175504  0.17585981  0.88998200    -0.18200
C2403       C  0.18788436  0.19601105  0.88835165     0.10100
C2404       C  0.19289655  0.22644103  0.89456063    -0.07000
C2405       C  0.22123038  0.23570281  0.90434373    -0.18300
C2406       C  0.24507946  0.21543551  0.90632021     0.10100
S2407       S  0.15230579  0.18208684  0.87529838    -0.33200
S2408       S  0.28038574  0.22932311  0.91970102    -0.33200
H2409       H  0.28922819  0.20222179  0.93281335     0.28100
H2410       H  0.13466517  0.20344328  0.89024135     0.28100
H2411       H  0.20794201  0.15292176  0.88323900     0.18700
H2412       H  0.22513587  0.25908482  0.90918366     0.18700
C2413       C  0.37988846  0.20657855  0.87961868    -0.07100
C2414       C  0.39574858  0.21527902  0.85411538    -0.18200
C2415       C  0.39947927  0.24536720  0.84711559     0.10100
C2416       C  0.38577873  0.26751053  0.86522205    -0.07000
C2417       C  0.37412903  0.25901118  0.89310531    -0.18300
C2418       C  0.37186128  0.22865234  0.90078665     0.10100
S2419       S  0.41991910  0.25387734  0.81346596    -0.33200
S2420       S  0.35623196  0.21926048  0.93652975    -0.33200
H2421       H  0.37246850  0.19253572  0.93949473     0.28100
H2422       H  0.42875642  0.28261199  0.82270924     0.28100
H2423       H  0.40297736  0.19847750  0.83812483     0.18700
H2424       H  0.36468299  0.27574836  0.90792113     0.18700
C2425       C  0.38422511  0.12251912  0.72737771    -0.07100
C2426       C  0.36363902  0.10072863  0.73616002    -0.18200
C2427       C  0.35699564  0.09649122  0.76639420     0.10100
C2428       C  0.37123125  0.11444144  0.78822197    -0.07000
C2429       C  0.39524324  0.13254898  0.77971076    -0.18300
C2430       C  0.40205131  0.13649166  0.74946786     0.10100
S2431       S  0.32846510  0.06965324  0.77567912    -0.33200
S2432       S  0.43237346  0.16113369  0.74026129    -0.33200
H2433       H  0.43635363  0.15043828  0.71092818     0.28100
H2434       H  0.33797803  0.06526020  0.80530428     0.28100
H2435       H  0.35056668  0.08907839  0.71945464     0.18700
H2436       H  0.40693290  0.14577260  0.79636879     0.18700
C2437       C  0.13326987  0.01797296  0.67489863    -0.07100
C2438       C  0.11933532  0.00365663  0.65055693    -0.18200
C2439       C  0.11689390  0.97244891  0.64903342     0.10100
C2440       C  0.12782064  0.95494075  0.67293073    -0.07000
C2441       C  0.14286644  0.96902824  0.69652289    -0.18300
C2442       C  0.14677333  0.99995994  0.69722084     0.10100
S2443       S  0.09893047  0.95707941  0.61625444    -0.33200
S2444       S  0.17040142  0.01447760  0.72659648    -0.33200
H2445       H  0.18500660  0.03513046  0.70803596     0.28100
H2446       H  0.09138036  0.92914831  0.62779611     0.28100
H2447       H  0.10944703  0.01686022  0.63290112     0.18700
H2448       H  0.15244039  0.95564232  0.71424925     0.18700
C2449       C  0.12513712  0.20873043  0.63535159    -0.07100
C2450       C  0.10827285  0.22842266  0.65326428    -0.18200
C2451       C  0.10993379  0.25940998  0.64971313     0.10100
C2452       C  0.12907443  0.27159401  0.62788133    -0.07000
C2453       C  0.14312874  0.25201008  0.60757427    -0.18300
C2454       C  0.14095597  0.22075708  0.61079971     0.10100
S2455       S  0.08956458  0.28245448  0.67590773    -0.33200
S2456       S  0.16187451  0.19769139  0.58530419    -0.33200
H2457       H  0.13915850  0.17618801  0.58240954     0.28100
H2458       H  0.08875273  0.30801191  0.65780960     0.28100
H2459       H  0.09559771  0.21969428  0.67192020     0.18700
H2460       H  0.15803027  0.26099309  0.59078585     0.18700
C2461       C  0.22415171  0.11126409  0.63571425    -0.07100
C2462       C  0.24128647  0.09774844  0.65821519    -0.18200
C2463       C  0.27257178  0.10034719  0.65876306     0.10100
C2464       C  0.28730770  0.11683501  0.63637855    -0.07000
C2465       C  0.27053767  0.12695563  0.61185171    -0.18300
C2466       C  0.23913136  0.12451937  0.61140863     0.10100
S2467       S  0.29239963  0.08343095  0.68937960    -0.33200
S2468       S  0.21926261  0.14100501  0.58058142    -0.33200
H2469       H  0.19251576  0.12503851  0.58465361     0.28100
H2470       H  0.31952550  0.07980117  0.67380884     0.28100
H2471       H  0.23011569  0.08711067  0.67680374     0.18700
H2472       H  0.28158495  0.13924941  0.59427085     0.18700
C2473       C  0.10967174  0.18529349  0.75851398    -0.07100
C2474       C  0.11794178  0.21360772  0.74851262    -0.18200
C2475       C  0.11943002  0.23801773  0.76796412     0.10100
C2476       C  0.11140628  0.23415784  0.79846874    -0.07000
C2477       C  0.09982224  0.20633613  0.80744606    -0.18300
C2478       C  0.09900134  0.18190181  0.78784085     0.10100
S2479       S  0.13454886  0.27248258  0.75333546    -0.33200
S2480       S  0.08781237  0.14629939  0.80248640    -0.33200
H2481       H  0.07080362  0.13839297  0.77724320     0.28100
H2482       H  0.13926969  0.26308377  0.72368095     0.28100
H2483       H  0.12580156  0.21589100  0.72576845     0.18700
H2484       H  0.09317792  0.20290682  0.83043094     0.18700
C2485       C  0.20778568  0.10086173  0.75901944    -0.07100
C2486       C  0.20114676  0.08319882  0.78416829    -0.18200
C2487       C  0.22136732  0.08068477  0.80814511     0.10100
C2488       C  0.24880526  0.09613961  0.80705290    -0.07000
C2489       C  0.25668874  0.11088118  0.78068330    -0.18300
C2490       C  0.23650349  0.11424349  0.75724690     0.10100
S2491       S  0.20986151  0.05999531  0.84047235    -0.33200
S2492       S  0.24779286  0.13967567  0.72826469    -0.33200
H2493       H  0.22331290  0.15897335  0.73301367     0.28100
H2494       H  0.23790495  0.04626020  0.84449788     0.28100
H2495       H  0.17956156  0.07233370  0.78579629     0.18700
H2496       H  0.27781167  0.12274415  0.77960458     0.18700
C2497       C  0.53589209  0.15875257  0.62523062    -0.07100
C2498       C  0.52042566  0.15115501  0.59899869    -0.18200
C2499       C  0.48909722  0.14988490  0.59849689     0.10100
C2500       C  0.47274146  0.15623350  0.62476207    -0.07000
C2501       C  0.48818944  0.16282738  0.65122984    -0.18300
C2502       C  0.51951440  0.16407578  0.65175882     0.10100
S2503       S  0.47120666  0.14032758  0.56368712    -0.33200
S2504       S  0.53733148  0.17225246  0.68696078    -0.33200
H2505       H  0.56203868  0.15352809  0.68163260     0.28100
H2506       H  0.44733148  0.12485136  0.57691107     0.28100
H2507       H  0.53279347  0.14693935  0.57857483     0.18700
H2508       H  0.47574935  0.16771359  0.67146063     0.18700
C2509       C  0.63065821  0.16130529  0.53154111    -0.07100
C2510       C  0.62977061  0.13394639  0.51605594    -0.18200
C2511       C  0.62827261  0.13282805  0.48470850     0.10100
C2512       C  0.62849161  0.15968786  0.46812545    -0.07000
C2513       C  0.63089465  0.18688240  0.48372122    -0.18300
C2514       C  0.63203719  0.18805596  0.51497556     0.10100
S2515       S  0.62429285  0.09657715  0.46760948    -0.33200
S2516       S  0.63656013  0.22392628  0.53316100    -0.33200
H2517       H  0.63578028  0.24164541  0.50733252     0.28100
H2518       H  0.60119938  0.10547847  0.44818761     0.28100
H2519       H  0.62878035  0.11329660  0.52849749     0.18700
H2520       H  0.63201139  0.20747656  0.47125411     0.18700
C2521       C  0.83260308  0.45883157  0.62732335    -0.07100
C2522       C  0.82038169  0.47451348  0.65169747    -0.18200
C2523       C  0.82115715  0.50573197  0.65317373     0.10100
C2524       C  0.83381884  0.52210025  0.62940056    -0.07000
C2525       C  0.84748070  0.50647165  0.60577254    -0.18300
C2526       C  0.84668586  0.47517081  0.60426595     0.10100
S2527       S  0.80602819  0.52330336  0.68626727    -0.33200
S2528       S  0.86163954  0.45773925  0.57108397    -0.33200
H2529       H  0.83736784  0.43814008  0.56721304     0.28100
H2530       H  0.82531992  0.54805578  0.68578805     0.28100
H2531       H  0.81010090  0.46230602  0.66983232     0.18700
H2532       H  0.85715701  0.51876145  0.58736961     0.18700
C2533       C  0.82899419  0.36868242  0.53191903    -0.07100
C2534       C  0.80171512  0.37431120  0.51717045    -0.18200
C2535       C  0.79950599  0.37497843  0.48586303     0.10100
C2536       C  0.82527917  0.36949259  0.46817377    -0.07000
C2537       C  0.85257239  0.36368993  0.48283479    -0.18300
C2538       C  0.85478915  0.36347969  0.51418973     0.10100
S2539       S  0.76372005  0.38426528  0.46925343    -0.33200
S2540       S  0.89144252  0.35762014  0.52989559    -0.33200
H2541       H  0.88909317  0.38163119  0.55016425     0.28100
H2542       H  0.74745185  0.38804899  0.49589865     0.28100
H2543       H  0.78178931  0.37829173  0.53035068     0.18700
H2544       H  0.87255540  0.35950662  0.46973528     0.18700
C2545       C  0.70012416  0.24807074  0.60979751    -0.07100
C2546       C  0.69033700  0.27764422  0.60628834    -0.18200
C2547       C  0.71088961  0.30130494  0.60561395     0.10100
C2548       C  0.74177641  0.29523787  0.60877620    -0.07000
C2549       C  0.75152702  0.26548769  0.60969962    -0.18300
C2550       C  0.73110815  0.24193422  0.60988636     0.10100
S2551       S  0.69626496  0.33875733  0.60468416    -0.33200
S2552       S  0.74583501  0.20455445  0.61170807    -0.33200
H2553       H  0.72220217  0.19181458  0.59526997     0.28100
H2554       H  0.71861131  0.34965885  0.58557519     0.28100
H2555       H  0.66656231  0.28252723  0.60626358     0.18700
H2556       H  0.77521046  0.26063145  0.61197829     0.18700
C2557       C  0.62870671  0.45937430  0.83526717    -0.07100
C2558       C  0.62070844  0.47484444  0.86154814    -0.18200
C2559       C  0.61907815  0.50630930  0.86233587     0.10100
C2560       C  0.62616714  0.52297623  0.83645608    -0.07000
C2561       C  0.63503595  0.50740313  0.81062806    -0.18300
C2562       C  0.63682360  0.47621456  0.80992337     0.10100
S2563       S  0.60587557  0.52361875  0.89629067    -0.33200
S2564       S  0.65136810  0.45922736  0.77645483    -0.33200
H2565       H  0.67074278  0.44026337  0.79231968     0.28100
H2566       H  0.58847893  0.54547314  0.88191865     0.28100
H2567       H  0.61437287  0.46233490  0.88119013     0.18700
H2568       H  0.64121386  0.51972842  0.79080394     0.18700
C2569       C  0.53454740  0.36467168  0.83538749    -0.07100
C2570       C  0.51923614  0.38950787  0.84708128    -0.18200
C2571       C  0.48789149  0.39082344  0.84675243     0.10100
C2572       C  0.47148107  0.36679444  0.83457523    -0.07000
C2573       C  0.48665279  0.34151870  0.82395598    -0.18300
C2574       C  0.51793960  0.34011357  0.82432549     0.10100
S2575       S  0.47013804  0.42411788  0.86108198    -0.33200
S2576       S  0.53520992  0.30637282  0.81034023    -0.33200
H2577       H  0.56103948  0.30834585  0.82812963     0.28100
H2578       H  0.44446967  0.40975244  0.87199381     0.28100
H2579       H  0.53176745  0.40845315  0.85549436     0.18700
H2580       H  0.47403256  0.32294661  0.81483798     0.18700
C2581       C  0.61724866  0.28296997  0.75448321    -0.07100
C2582       C  0.60750443  0.29086752  0.72568633    -0.18200
C2583       C  0.60730670  0.27030235  0.70203519     0.10100
C2584       C  0.61775136  0.24080143  0.70672158    -0.07000
C2585       C  0.62476459  0.23218304  0.73608763    -0.18300
C2586       C  0.62473033  0.25264082  0.75991580     0.10100
S2587       S  0.59424823  0.28380358  0.66648729    -0.33200
S2588       S  0.63557783  0.23927953  0.79648663    -0.33200
H2589       H  0.64463499  0.21038619  0.78798155     0.28100
H2590       H  0.57583357  0.25885641  0.66122912     0.28100
H2591       H  0.60086318  0.31366945  0.72112032     0.18700
H2592       H  0.63164285  0.20941825  0.74027582     0.18700
C2593       C  0.70212928  0.37667276  0.74921453    -0.07100
C2594       C  0.73064199  0.36685772  0.75777614    -0.18200
C2595       C  0.75458662  0.36626912  0.73768722     0.10100
C2596       C  0.74986659  0.37587559  0.70782429    -0.07000
C2597       C  0.72205757  0.38896479  0.70048371    -0.18300
C2598       C  0.69810805  0.38915473  0.72070052     0.10100
S2599       S  0.78983281  0.35103636  0.75071044    -0.33200
S2600       S  0.66249884  0.40305626  0.70784613    -0.33200
H2601       H  0.64549779  0.37962053  0.71984343     0.28100
H2602       H  0.78280471  0.34986941  0.78132048     0.28100
H2603       H  0.73362783  0.35785554  0.78000241     0.18700
H2604       H  0.71813409  0.39720264  0.67810516     0.18700
C2605       C  0.97178077  0.10935052  0.67218825    -0.07100
C2606       C  0.98712755  0.08381555  0.68199622    -0.18200
C2607       C  0.01845641  0.08179109  0.68076581     0.10100
C2608       C  0.03556884  0.10627246  0.67040423    -0.07000
C2609       C  0.02023521  0.13156702  0.65985369    -0.18300
C2610       C  0.98876336  0.13349196  0.66089310     0.10100
S2611       S  0.03505213  0.04673590  0.69165451    -0.33200
S2612       S  0.97186743  0.16816646  0.64940564    -0.33200
H2613       H  0.95027506  0.16876258  0.67229096     0.28100
H2614       H  0.05789865  0.04738817  0.67002531     0.28100
H2615       H  0.97453133  0.06486760  0.69010350     0.18700
H2616       H  0.03289774  0.15061112  0.65210097     0.18700
C2617       C  0.87337455  0.01922791  0.67344555    -0.07100
C2618       C  0.88902882  0.00431910  0.65043924    -0.18200
C2619       C  0.88936718  0.97303837  0.64828063     0.10100
C2620       C  0.87343884  0.95593917  0.66934628    -0.07000
C2621       C  0.85729212  0.97062977  0.69185077    -0.18300
C2622       C  0.85645375  0.00179823  0.69379161     0.10100
S2623       S  0.91188199  0.95636302  0.61921202    -0.33200
S2624       S  0.83253126  0.01746493  0.72232171    -0.33200
H2625       H  0.81981160  0.03897579  0.70330039     0.28100
H2626       H  0.92094272  0.93144597  0.63585441     0.28100
H2627       H  0.90209128  0.01702105  0.63458577     0.18700
H2628       H  0.84480104  0.95759853  0.70793340     0.18700
C2629       C  0.78648713  0.10889276  0.62648501    -0.07100
C2630       C  0.76838916  0.09439217  0.64747589    -0.18200
C2631       C  0.73706972  0.09600076  0.64574742     0.10100
C2632       C  0.72350547  0.11330525  0.62321384    -0.07000
C2633       C  0.74150561  0.12420881  0.60004025    -0.18300
C2634       C  0.77277635  0.12164574  0.60118157     0.10100
S2635       S  0.71580917  0.07898890  0.67510575    -0.33200
S2636       S  0.79387421  0.13618962  0.57038392    -0.33200
H2637       H  0.82066756  0.12111903  0.57713268     0.28100
H2638       H  0.69148215  0.07157505  0.65659508     0.28100
H2639       H  0.77863188  0.08399219  0.66676335     0.18700
H2640       H  0.73131847  0.13687123  0.58214483     0.18700
C2641       C  0.88271682  0.20698622  0.62642392    -0.07100
C2642       C  0.90128234  0.22742154  0.64149611    -0.18200
C2643       C  0.89679745  0.25832794  0.63905022     0.10100
C2644       C  0.87341192  0.26916560  0.62079606    -0.07000
C2645       C  0.85836146  0.24889357  0.60204032    -0.18300
C2646       C  0.86309558  0.21796357  0.60442231     0.10100
S2647       S  0.91806867  0.28224026  0.66349550    -0.33200
S2648       S  0.84145952  0.19272974  0.58181606    -0.33200
H2649       H  0.82713761  0.21448446  0.56430473     0.28100
H2650       H  0.92364914  0.30369647  0.64140562     0.28100
H2651       H  0.91746830  0.21921453  0.65748519     0.18700
H2652       H  0.84085972  0.25716955  0.58750189     0.18700
C2653       C  0.66661119  0.11767551  0.96660739    -0.07100
C2654       C  0.65035893  0.09604753  0.98239424    -0.18200
C2655       C  0.65198726  0.09421225  0.01369324     0.10100
C2656       C  0.66963911  0.11500516  0.02987078    -0.07000
C2657       C  0.68452251  0.13752153  0.01406782    -0.18300
C2658       C  0.68290170  0.13934220  0.98295430     0.10100
S2659       S  0.63297622  0.06348212  0.03121491    -0.33200
S2660       S  0.70155389  0.17045074  0.96559855    -0.33200
H2661       H  0.68025005  0.17388016  0.94271975     0.28100
H2662       H  0.65673547  0.05661659  0.05068019     0.28100
H2663       H  0.63766741  0.07941062  0.97021891     0.18700
H2664       H  0.69739042  0.15416324  0.02612758     0.18700
C2665       C  0.66131688  0.02364303  0.87292650    -0.07100
C2666       C  0.67266997  0.00837395  0.84795963    -0.18200
C2667       C  0.67424262  0.97709543  0.84729625     0.10100
C2668       C  0.66435321  0.96051341  0.87228526    -0.07000
C2669       C  0.65216100  0.97586765  0.89685105    -0.18300
C2670       C  0.65071868  0.00711592  0.89750536     0.10100
S2671       S  0.68919460  0.95983073  0.81396990    -0.33200
S2672       S  0.63672875  0.02463365  0.93103000    -0.33200
H2673       H  0.62406711  0.04947633  0.91672564     0.28100
H2674       H  0.67221400  0.93358281  0.81604725     0.28100
H2675       H  0.68099751  0.02095717  0.82908343     0.18700
H2676       H  0.64475988  0.96347046  0.91622292     0.18700
C2677       C  0.62060318  0.11481344  0.77852520    -0.07100
C2678       C  0.63243465  0.09103920  0.76162023    -0.18200
C2679       C  0.63236921  0.09170712  0.73029416     0.10100
C2680       C  0.62099475  0.11700513  0.71549862    -0.07000
C2681       C  0.60602843  0.13895747  0.73226460    -0.18300
C2682       C  0.60521319  0.13780344  0.76350214     0.10100
S2683       S  0.64916321  0.06082356  0.71061032    -0.33200
S2684       S  0.58827426  0.16868934  0.78296958    -0.33200
H2685       H  0.57983148  0.15189253  0.80799563     0.28100
H2686       H  0.63568140  0.06675079  0.68286965     0.28100
H2687       H  0.64432369  0.07321092  0.77285975     0.18700
H2688       H  0.59737441  0.15861861  0.72123633     0.18700
C2689       C  0.62463852  0.21027576  0.88040484    -0.07100
C2690       C  0.64685139  0.22527976  0.89681664    -0.18200
C2691       C  0.64837490  0.25658609  0.89732716     0.10100
C2692       C  0.62727935  0.27352607  0.88099540    -0.07000
C2693       C  0.60291365  0.25859885  0.86789688    -0.18300
C2694       C  0.60137866  0.22725594  0.86746038     0.10100
S2695       S  0.67905755  0.27362509  0.91731536    -0.33200
S2696       S  0.57033134  0.21020072  0.84828699    -0.33200
H2697       H  0.57282152  0.18227556  0.86227360     0.28100
H2698       H  0.66540766  0.30174038  0.92082880     0.28100
H2699       H  0.66472454  0.21258625  0.90716808     0.18700
H2700       H  0.58635282  0.27122830  0.85553965     0.18700
C2701       C  0.75017527  0.10360293  0.79754830    -0.07100
C2702       C  0.74362505  0.11618786  0.76971032    -0.18200
C2703       C  0.76505074  0.11793535  0.74699866     0.10100
C2704       C  0.79428921  0.10621712  0.75190097    -0.07000
C2705       C  0.79993867  0.09123298  0.77898560    -0.18300
C2706       C  0.77820558  0.08961908  0.80165314     0.10100
S2707       S  0.75476933  0.13836383  0.71370127    -0.33200
S2708       S  0.78852531  0.07207854  0.83622346    -0.33200
H2709       H  0.76235879  0.05472381  0.83757612     0.28100
H2710       H  0.72357635  0.13828313  0.71816030     0.28100
H2711       H  0.72201310  0.12672313  0.76652846     0.18700
H2712       H  0.82183117  0.08164271  0.78306956     0.18700
C2713       C  0.87651160  0.32336800  0.03370908    -0.07100
C2714       C  0.85943658  0.30102360  0.02009122    -0.18200
C2715       C  0.85714354  0.29870474  0.98903021     0.10100
C2716       C  0.87319074  0.31881884  0.97045643    -0.07000
C2717       C  0.88964001  0.34185291  0.98438303    -0.18300
C2718       C  0.89167235  0.34414666  0.01565667     0.10100
S2719       S  0.83306856  0.26941158  0.97543504    -0.33200
S2720       S  0.91525935  0.37295684  0.03108948    -0.33200
H2721       H  0.92519885  0.35646290  0.05582148     0.28100
H2722       H  0.82114086  0.28607774  0.95191584     0.28100
H2723       H  0.84760558  0.28513777  0.03393291     0.18700
H2724       H  0.90218604  0.35743635  0.97088747     0.18700
C2725       C  0.96981695  0.31966258  0.88252015    -0.07100
C2726       C  0.98466516  0.33622662  0.86038350    -0.18200
C2727       C  0.01600880  0.33801647  0.85954912     0.10100
C2728       C  0.03312833  0.32189257  0.88051245    -0.07000
C2729       C  0.01842754  0.30613934  0.90309054    -0.18300
C2730       C  0.98719928  0.30567581  0.90497922     0.10100
S2731       S  0.03261745  0.36000189  0.83041176    -0.33200
S2732       S  0.97127426  0.28788573  0.93732081    -0.33200
H2733       H  0.94949569  0.31017905  0.94207417     0.28100
H2734       H  0.05696211  0.37001517  0.84753507     0.28100
H2735       H  0.97182383  0.34755818  0.84329022     0.18700
H2736       H  0.03150076  0.29424924  0.91964898     0.18700
C2737       C  0.79388320  0.23803977  0.88708846    -0.07100
C2738       C  0.76591749  0.24615054  0.87510424    -0.18200
C2739       C  0.74248602  0.22574402  0.87239410     0.10100
C2740       C  0.74631583  0.19634896  0.88346814    -0.07000
C2741       C  0.77325934  0.18905280  0.89798209    -0.18300
C2742       C  0.79700211  0.20934016  0.89984593     0.10100
S2743       S  0.70989754  0.23730986  0.85116809    -0.33200
S2744       S  0.83073171  0.19635471  0.91769122    -0.33200
H2745       H  0.83699568  0.22368061  0.93170034     0.28100
H2746       H  0.71510802  0.26825511  0.85218198     0.28100
H2747       H  0.76301909  0.26802370  0.86540255     0.18700
H2748       H  0.77636807  0.16688795  0.90704311     0.18700
C2749       C  0.89163123  0.22966219  0.80498803    -0.07100
C2750       C  0.88324108  0.23785514  0.77609699    -0.18200
C2751       C  0.88375103  0.21738624  0.75276919     0.10100
C2752       C  0.89240912  0.18756060  0.75805580    -0.07000
C2753       C  0.90408677  0.18004833  0.78621977    -0.18300
C2754       C  0.90361152  0.20085152  0.80991159     0.10100
S2755       S  0.87249903  0.23057171  0.71670598    -0.33200
S2756       S  0.91592663  0.18852657  0.84613659    -0.33200
H2757       H  0.89256567  0.20227718  0.86216478     0.28100
H2758       H  0.89590171  0.21465738  0.70313487     0.28100
H2759       H  0.87489285  0.26019553  0.77190062     0.18700
H2760       H  0.91106226  0.15730149  0.79051632     0.18700
C2761       C  0.88279956  0.35616814  0.77966630    -0.07100
C2762       C  0.86513511  0.37939459  0.76811516    -0.18200
C2763       C  0.86264345  0.38378417  0.73704043     0.10100
C2764       C  0.87747097  0.36406942  0.71707430    -0.07000
C2765       C  0.89778879  0.34332968  0.72882773    -0.18300
C2766       C  0.90102884  0.33960397  0.75970871     0.10100
S2767       S  0.83690731  0.41198659  0.72420201    -0.33200
S2768       S  0.92664186  0.31112275  0.77234130    -0.33200
H2769       H  0.93045237  0.32297178  0.80126248     0.28100
H2770       H  0.85346653  0.41930722  0.69860637     0.28100
H2771       H  0.85097691  0.39225117  0.78306300     0.18700
H2772       H  0.90953755  0.32829096  0.71384710     0.18700
C2773       C  0.78581343  0.36475574  0.87712457    -0.07100
C2774       C  0.77376322  0.38619836  0.85790198    -0.18200
C2775       C  0.74283992  0.39083191  0.85637709     0.10100
C2776       C  0.72345774  0.37287137  0.87358490    -0.07000
C2777       C  0.73563072  0.35435143  0.89553151    -0.18300
C2778       C  0.76665002  0.35019691  0.89755150     0.10100
S2779       S  0.72902857  0.41713249  0.82923535    -0.33200
S2780       S  0.77975437  0.32230675  0.92312229    -0.33200
H2781       H  0.80598327  0.33772559  0.93096113     0.28100
H2782       H  0.70056825  0.42058805  0.84228220     0.28100
H2783       H  0.78826844  0.39767066  0.84233533     0.18700
H2784       H  0.72095067  0.34030316  0.90862496     0.18700
loop_ 
_geom_bond_atom_site_label_1 
_geom_bond_atom_site_label_2 
_geom_bond_distance 
_geom_bond_site_symmetry_2 
_ccdc_geom_bond_type 
O1          Cr19   1.958       .  S
O1            C9   1.259       .  A
O2          Cr19   1.999       .  S
O2            C3   1.260       .  A
C3            O4   1.255       .  A
C3         C2773   1.474       .  S
O4          Cr20   1.988       .  S
O5          Cr20   2.030       .  S
O5            C6   1.274       .  A
C6            O7   1.259       .  A
C6         C2716   1.497       .  S
O7          Cr21   1.967       .  S
O8          Cr21   2.028       .  S
O8            C9   1.270       .  A
C9         C2737   1.489       .  S
O10         Cr19   1.992       .  S
O10          C18   1.263       .  A
O11         Cr19   1.952       .  S
O11          C12   1.257       .  A
C12          O13   1.278       .  A
C12        C2761   1.486       .  S
O13         Cr20   2.060       .  S
O14         Cr20   1.977       .  S
O14          C15   1.262       .  A
C15          O16   1.267       .  A
C15        C2725   1.487       .  S
O16         Cr21   2.005       .  S
O17         Cr21   1.988       .  S
O17          C18   1.259       .  A
C18        C2749   1.470       .  S
Cr19         O22   1.757       .  S
Cr20         O22   1.770       .  S
Cr21         O22   1.770       .  S
O23         Cr41   1.994       .  S
O23          C31   1.263       .  A
O24         Cr41   1.947       .  S
O24          C25   1.256       .  A
C25          O26   1.277       .  A
C25        C2677   1.476       .  S
O26         Cr42   2.050       .  S
O27         Cr42   1.990       .  S
O27          C28   1.264       .  A
C28          O29   1.267       .  A
C28        C2665   1.476       .  S
O29         Cr43   2.009       .  S
O30         Cr43   1.997       .  S
O30          C31   1.262       .  A
C31        C2701   1.484       .  S
O32         Cr41   1.956       .  S
O32          C40   1.255       .  A
O33         Cr41   2.001       .  S
O33          C34   1.258       .  A
C34          O35   1.260       .  A
C34        C2689   1.485       .  S
O35         Cr42   2.013       .  S
O36         Cr42   2.022       .  S
O36          C37   1.269       .  A
C37          O38   1.260       .  A
C37        C2653   1.486       .  S
O38         Cr43   1.969       .  S
O39         Cr43   2.025       .  S
O39          C40   1.272       .  A
C40        C2740   1.485       .  S
Cr41         O44   1.760       .  S
Cr42         O44   1.772       .  S
Cr43         O44   1.769       .  S
O45         Cr63   1.996       .  S
O45          C53   1.263       .  A
O46         Cr63   1.955       .  S
O46          C47   1.255       .  A
C47          O48   1.275       .  A
C47        C2641   1.487       .  S
O48         Cr64   2.052       .  S
O49         Cr64   1.989       .  S
O49          C50   1.265       .  A
C50          O51   1.271       .  A
C50        C2605   1.494       .  S
O51         Cr65   2.020       .  S
O52         Cr65   1.994       .  S
O52          C53   1.261       .  A
C53        C2752   1.480       .  S
O54         Cr63   1.966       .  S
O54          C62   1.257       .  A
O55         Cr63   2.005       .  S
O55          C56   1.261       .  A
C56          O57   1.259       .  A
C56        C2629   1.479       .  S
O57         Cr64   2.001       .  S
O58         Cr64   2.021       .  S
O58          C59   1.270       .  A
C59          O60   1.259       .  A
C59        C2617   1.496       .  S
O60         Cr65   1.971       .  S
O61         Cr65   2.037       .  S
O61          C62   1.273       .  A
C62        C2704   1.498       .  S
Cr63         O66   1.759       .  S
Cr64         O66   1.775       .  S
Cr65         O66   1.772       .  S
O67         Cr85   1.984       .  S
O67          C75   1.258       .  A
O68         Cr85   1.941       .  S
O68          C69   1.255       .  A
C69          O70   1.275       .  A
C69        C2776   1.469       .  S
O70         Cr86   2.043       .  S
O71         Cr86   1.996       .  S
O71          C72   1.265       .  A
C72          O73   1.270       .  A
C72        C2557   1.495       .  S
O73         Cr87   2.016       .  S
O74         Cr87   1.990       .  S
O74          C75   1.258       .  A
C75        C2593   1.471       .  S
O76         Cr85   1.965       .  S
O76          C84   1.260       .  A
O77         Cr85   1.998       .  S
O77          C78   1.257       .  A
C78          O79   1.262       .  A
C78        C2692   1.487       .  S
O79         Cr86   2.016       .  S
O80         Cr86   2.014       .  S
O80          C81   1.268       .  A
C81          O82   1.259       .  A
C81        C2569   1.475       .  S
O82         Cr87   1.968       .  S
O83         Cr87   2.029       .  S
O83          C84   1.275       .  A
C84        C2581   1.495       .  S
Cr85         O88   1.764       .  S
Cr86         O88   1.775       .  S
Cr87         O88   1.765       .  S
O89        Cr107   1.993       .  S
O89          C97   1.261       .  A
O90        Cr107   1.965       .  S
O90          C91   1.258       .  A
C91          O92   1.272       .  A
C91        C2644   1.485       .  S
O92        Cr108   2.041       .  S
O93        Cr108   1.999       .  S
O93          C94   1.267       .  A
C94          O95   1.269       .  A
C94        C2533   1.500       .  S
O95        Cr109   2.008       .  S
O96        Cr109   1.992       .  S
O96          C97   1.261       .  A
C97        C2548   1.473       .  S
O98        Cr107   1.967       .  S
O98         C106   1.257       .  A
O99        Cr107   1.998       .  S
O99         C100   1.261       .  A
C100        O101   1.263       .  A
C100       C2764   1.485       .  S
O101       Cr108   2.010       .  S
O102       Cr108   2.020       .  S
O102        C103   1.268       .  A
C103        O104   1.260       .  A
C103       C2521   1.486       .  S
O104       Cr109   1.977       .  S
O105       Cr109   2.018       .  S
O105        C106   1.270       .  A
C106       C2596   1.492       .  S
Cr107       O110   1.762       .  S
Cr108       O110   1.773       .  S
Cr109       O110   1.768       .  S
O111       Cr129   1.973       .  S
O111        C119   1.259       .  A
O112       Cr129   2.005       .  S
O112        C113   1.263       .  A
C113        O114   1.261       .  A
C113       C2680   1.476       .  S
O114       Cr130   1.996       .  S
O115       Cr130   2.017       .  S
O115        C116   1.266       .  A
C116        O117   1.259       .  A
C116       C2497   1.477       .  S
O117       Cr131   1.978       .  S
O118       Cr131   2.014       .  S
O118        C119   1.265       .  A
C119       C2584   1.495       .  S
O120       Cr129   2.006       .  S
O120        C128   1.266       .  A
O121       Cr129   1.958       .  S
O121        C122   1.256       .  A
C122        O123   1.271       .  A
C122       C2632   1.479       .  S
O123       Cr130   2.039       .  S
O124       Cr130   1.988       .  S
O124        C125   1.265       .  A
C125        O126   1.269       .  A
C125       C2509   1.487       .  S
O126       Cr131   2.010       .  S
O127       Cr131   1.982       .  S
O127        C128   1.260       .  A
C128       C2545   1.474       .  S
Cr129       O132   1.762       .  S
Cr130       O132   1.777       .  S
Cr131       O132   1.767       .  S
O133       Cr151   1.968       .  S
O133        C141   1.258       .  A
O134       Cr151   1.993       .  S
O134        C135   1.256       .  A
C135        O136   1.261       .  A
C135       C2461   1.481       .  S
O136       Cr152   2.013       .  S
O137       Cr152   2.029       .  S
O137        C138   1.274       .  A
C138        O139   1.258       .  A
C138       C2437   1.493       .  S
O139       Cr153   1.958       .  S
O140       Cr153   2.030       .  S
O140        C141   1.271       .  A
C141       C2485   1.490       .  S
O142       Cr151   1.988       .  S
O142        C150   1.261       .  A
O143       Cr151   1.955       .  S
O143        C144   1.259       .  A
C144        O145   1.279       .  A
C144       C2449   1.495       .  S
O145       Cr152   2.062       .  S
O146       Cr152   2.004       .  S
O146        C147   1.267       .  A
C147        O148   1.266       .  A
C147       C2608   1.495       .  S
O148       Cr153   2.004       .  S
O149       Cr153   1.986       .  S
O149        C150   1.258       .  A
C150       C2473   1.467       .  S
Cr151       O154   1.759       .  S
Cr152       O154   1.769       .  S
Cr153       O154   1.771       .  S
O155       Cr173   1.980       .  S
O155        C163   1.265       .  A
O156       Cr173   1.986       .  S
O156        C157   1.258       .  A
C157        O158   1.260       .  A
C157       C2413   1.480       .  S
O158       Cr174   2.005       .  S
O159       Cr174   2.010       .  S
O159        C160   1.268       .  A
C160        O161   1.262       .  A
C160       C2377   1.469       .  S
O161       Cr175   1.968       .  S
O162       Cr175   2.016       .  S
O162        C163   1.271       .  A
C163       C2401   1.483       .  S
O164       Cr173   1.981       .  S
O164        C172   1.257       .  A
O165       Cr173   1.964       .  S
O165        C166   1.260       .  A
C166        O167   1.271       .  A
C166       C2428   1.474       .  S
O167       Cr174   2.028       .  S
O168       Cr174   1.990       .  S
O168        C169   1.260       .  A
C169        O170   1.260       .  A
C169       C2392   1.471       .  S
O170       Cr175   1.992       .  S
O171       Cr175   2.006       .  S
O171        C172   1.260       .  A
C172       C2488   1.478       .  S
Cr173       O176   1.762       .  S
Cr174       O176   1.779       .  S
Cr175       O176   1.774       .  S
O177       Cr195   1.960       .  S
O177        C185   1.256       .  A
O178       Cr195   1.995       .  S
O178        C179   1.260       .  A
C179        O180   1.261       .  A
C179       C2365   1.480       .  S
O180       Cr196   2.005       .  S
O181       Cr196   2.023       .  S
O181        C182   1.270       .  A
C182        O183   1.259       .  A
C182       C2728   1.474       .  S
O183       Cr197   1.968       .  S
O184       Cr197   2.024       .  S
O184        C185   1.271       .  A
C185       C2476   1.490       .  S
O186       Cr195   1.998       .  S
O186        C194   1.261       .  A
O187       Cr195   1.948       .  S
O187        C188   1.257       .  A
C188        O189   1.274       .  A
C188       C2353   1.481       .  S
O189       Cr196   2.042       .  S
O190       Cr196   1.994       .  S
O190        C191   1.264       .  A
C191        O192   1.268       .  A
C191       C2341   1.494       .  S
O192       Cr197   2.007       .  S
O193       Cr197   1.989       .  S
O193        C194   1.259       .  A
C194       C2404   1.467       .  S
Cr195       O198   1.761       .  S
Cr196       O198   1.775       .  S
Cr197       O198   1.765       .  S
O199       Cr217   2.007       .  S
O199        C207   1.264       .  A
O200       Cr217   1.957       .  S
O200        C201   1.260       .  A
C201        O202   1.276       .  A
C201       C2416   1.487       .  S
O202       Cr218   2.046       .  S
O203       Cr218   1.973       .  S
O203        C204   1.259       .  A
C204        O205   1.266       .  A
C204       C2572   1.468       .  S
O205       Cr219   2.011       .  S
O206       Cr219   1.987       .  S
O206        C207   1.257       .  A
C207       C2332   1.473       .  S
O208       Cr217   1.964       .  S
O208        C216   1.258       .  A
O209       Cr217   2.001       .  S
O209        C210   1.262       .  A
C210        O211   1.258       .  A
C210       C2356   1.474       .  S
O211       Cr218   1.994       .  S
O212       Cr218   2.030       .  S
O212        C213   1.269       .  A
C213        O214   1.253       .  A
C213       C2308   1.475       .  S
O214       Cr219   1.949       .  S
O215       Cr219   2.021       .  S
O215        C216   1.271       .  A
C216       C2320   1.491       .  S
Cr217       O220   1.757       .  S
Cr218       O220   1.773       .  S
Cr219       O220   1.764       .  S
O221       Cr239   1.986       .  S
O221        C229   1.258       .  A
O222       Cr239   1.950       .  S
O222        C223   1.258       .  A
C223        O224   1.279       .  A
C223       C2368   1.482       .  S
O224       Cr240   2.055       .  S
O225       Cr240   1.996       .  S
O225        C226   1.264       .  A
C226        O227   1.267       .  A
C226       C2269   1.493       .  S
O227       Cr241   2.007       .  S
O228       Cr241   1.986       .  S
O228        C229   1.256       .  A
C229       C2317   1.467       .  S
O230       Cr239   1.963       .  S
O230        C238   1.262       .  A
O231       Cr239   1.989       .  S
O231        C232   1.256       .  A
C232        O233   1.264       .  A
C232       C2452   1.486       .  S
O233       Cr240   2.023       .  S
O234       Cr240   2.035       .  S
O234        C235   1.273       .  A
C235        O236   1.257       .  A
C235       C2281   1.493       .  S
O236       Cr241   1.961       .  S
O237       Cr241   2.019       .  S
O237        C238   1.269       .  A
C238       C2296   1.486       .  S
Cr239       O242   1.759       .  S
Cr240       O242   1.772       .  S
Cr241       O242   1.767       .  S
O243       Cr261   1.964       .  S
O243        C251   1.258       .  A
O244       Cr261   2.015       .  S
O244        C245   1.265       .  A
C245        O246   1.261       .  A
C245       C2464   1.486       .  S
O246       Cr262   2.000       .  S
O247       Cr262   2.022       .  S
O247        C248   1.268       .  A
C248        O249   1.256       .  A
C248       C2257   1.478       .  S
O249       Cr263   1.960       .  S
O250       Cr263   2.015       .  S
O250        C251   1.270       .  A
C251       C2293   1.487       .  S
O252       Cr261   1.996       .  S
O252        C260   1.264       .  A
O253       Cr261   1.962       .  S
O253        C254   1.257       .  A
C254        O255   1.272       .  A
C254       C2425   1.477       .  S
O255       Cr262   2.038       .  S
O256       Cr262   1.984       .  S
O256        C257   1.263       .  A
C257        O258   1.267       .  A
C257       C2500   1.473       .  S
O258       Cr263   2.010       .  S
O259       Cr263   1.989       .  S
O259        C260   1.259       .  A
C260       C2329   1.472       .  S
Cr261       O264   1.757       .  S
Cr262       O264   1.770       .  S
Cr263       O264   1.768       .  S
O265       Cr283   1.966       .  S
O265        C273   1.258       .  A
O266       Cr283   1.998       .  S
O266        C267   1.258       .  A
C267        O268   1.261       .  A
C267       C2245   1.479       .  S
O268       Cr284   2.009       .  S
O269       Cr284   2.008       .  S
O269        C270   1.266       .  A
C270        O271   1.262       .  A
C270       C2389   1.482       .  S
O271       Cr285   1.983       .  S
O272       Cr285   2.043       .  S
O272        C273   1.275       .  A
C273       C2224   1.499       .  S
O274       Cr283   1.989       .  S
O274        C282   1.259       .  A
O275       Cr283   1.950       .  S
O275        C276   1.257       .  A
C276        O277   1.272       .  A
C276       C2236   1.475       .  S
O277       Cr284   2.036       .  S
O278       Cr284   1.991       .  S
O278        C279   1.265       .  A
C279        O280   1.274       .  A
C279       C2197   1.503       .  S
O280       Cr285   2.027       .  S
O281       Cr285   2.000       .  S
O281        C282   1.262       .  A
C282       C2209   1.475       .  S
Cr283       O286   1.761       .  S
Cr284       O286   1.776       .  S
Cr285       O286   1.767       .  S
O287       Cr305   1.981       .  S
O287        C295   1.262       .  A
O288       Cr305   1.999       .  S
O288        C289   1.261       .  A
C289        O290   1.261       .  A
C289       C2173   1.480       .  S
O290       Cr306   2.003       .  S
O291       Cr306   2.025       .  S
O291        C292   1.271       .  A
C292        O293   1.257       .  A
C292       C2137   1.481       .  S
O293       Cr307   1.954       .  S
O294       Cr307   2.021       .  S
O294        C295   1.270       .  A
C295       C2212   1.498       .  S
O296       Cr305   1.989       .  S
O296        C304   1.262       .  A
O297       Cr305   1.951       .  S
O297        C298   1.256       .  A
C298        O299   1.273       .  A
C298       C2164   1.474       .  S
O299       Cr306   2.038       .  S
O300       Cr306   1.996       .  S
O300        C301   1.263       .  A
C301        O302   1.266       .  A
C301       C2149   1.493       .  S
O302       Cr307   2.008       .  S
O303       Cr307   1.979       .  S
O303        C304   1.258       .  A
C304       C2185   1.465       .  S
Cr305       O308   1.762       .  S
Cr306       O308   1.774       .  S
Cr307       O308   1.762       .  S
O309       Cr327   1.967       .  S
O309        C317   1.260       .  A
O310       Cr327   2.002       .  S
O310        C311   1.259       .  A
C311        O312   1.259       .  A
C311       C2113   1.480       .  S
O312       Cr328   2.002       .  S
O313       Cr328   2.020       .  S
O313        C314   1.269       .  A
C314        O315   1.260       .  A
C314       C2101   1.484       .  S
O315       Cr329   1.973       .  S
O316       Cr329   2.013       .  S
O316        C317   1.272       .  A
C317       C2188   1.486       .  S
O318       Cr327   1.995       .  S
O318        C326   1.261       .  A
O319       Cr327   1.948       .  S
O319        C320   1.257       .  A
C320        O321   1.275       .  A
C320       C2125   1.472       .  S
O321       Cr328   2.041       .  S
O322       Cr328   1.978       .  S
O322        C323   1.260       .  A
C323        O324   1.267       .  A
C323       C2440   1.476       .  S
O324       Cr329   2.005       .  S
O325       Cr329   2.005       .  S
O325        C326   1.261       .  A
C326       C2221   1.490       .  S
Cr327       O330   1.762       .  S
Cr328       O330   1.774       .  S
Cr329       O330   1.766       .  S
O331       Cr349   1.975       .  S
O331        C339   1.259       .  A
O332       Cr349   2.005       .  S
O332        C333   1.262       .  A
C333        O334   1.261       .  A
C333       C2176   1.481       .  S
O334       Cr350   2.004       .  S
O335       Cr350   2.012       .  S
O335        C336   1.267       .  A
C336        O337   1.260       .  A
C336       C2305   1.472       .  S
O337       Cr351   1.966       .  S
O338       Cr351   2.018       .  S
O338        C339   1.269       .  A
C339       C2080   1.496       .  S
O340       Cr349   1.997       .  S
O340        C348   1.262       .  A
O341       Cr349   1.959       .  S
O341        C342   1.257       .  A
C342        O343   1.270       .  A
C342       C2233   1.476       .  S
O343       Cr350   2.030       .  S
O344       Cr350   2.005       .  S
O344        C345   1.268       .  A
C345        O346   1.266       .  A
C345       C2065   1.503       .  S
O346       Cr351   2.009       .  S
O347       Cr351   1.979       .  S
O347        C348   1.258       .  A
C348       C2089   1.467       .  S
Cr349       O352   1.764       .  S
Cr350       O352   1.775       .  S
Cr351       O352   1.765       .  S
O353       Cr371   1.971       .  S
O353        C361   1.263       .  A
O354       Cr371   2.001       .  S
O354        C355   1.259       .  A
C355        O356   1.260       .  A
C355       C2248   1.484       .  S
O356       Cr372   2.005       .  S
O357       Cr372   2.013       .  S
O357        C358   1.269       .  A
C358        O359   1.259       .  A
C358       C2029   1.495       .  S
O359       Cr373   1.970       .  S
O360       Cr373   2.017       .  S
O360        C361   1.272       .  A
C361       C2092   1.487       .  S
O362       Cr371   1.985       .  S
O362        C370   1.257       .  A
O363       Cr371   1.958       .  S
O363        C364   1.258       .  A
C364        O365   1.274       .  A
C364       C2128   1.473       .  S
O365       Cr372   2.037       .  S
O366       Cr372   1.989       .  S
O366        C367   1.263       .  A
C367        O368   1.265       .  A
C367       C2041   1.482       .  S
O368       Cr373   1.998       .  S
O369       Cr373   1.999       .  S
O369        C370   1.259       .  A
C370       C2053   1.472       .  S
Cr371       O374   1.765       .  S
Cr372       O374   1.776       .  S
Cr373       O374   1.769       .  S
O375       Cr393   1.977       .  S
O375        C383   1.261       .  A
O376       Cr393   1.997       .  S
O376        C377   1.259       .  A
C377        O378   1.259       .  A
C377       C2116   1.480       .  S
O378       Cr394   2.003       .  S
O379       Cr394   2.017       .  S
O379        C380   1.269       .  A
C380        O381   1.262       .  A
C380       C2017   1.486       .  S
O381       Cr395   1.967       .  S
O382       Cr395   2.016       .  S
O382        C383   1.270       .  A
C383       C2056   1.496       .  S
O384       Cr393   1.989       .  S
O384        C392   1.261       .  A
O385       Cr393   1.949       .  S
O385        C386   1.256       .  A
C386        O387   1.273       .  A
C386       C2161   1.473       .  S
O387       Cr394   2.039       .  S
O388       Cr394   1.996       .  S
O388        C389   1.263       .  A
C389        O390   1.265       .  A
C389       C2272   1.491       .  S
O390       Cr395   1.998       .  S
O391       Cr395   1.996       .  S
O391        C392   1.262       .  A
C392       C2077   1.476       .  S
Cr393       O396   1.764       .  S
Cr394       O396   1.779       .  S
Cr395       O396   1.765       .  S
O397       Cr415   1.990       .  S
O397        C405   1.259       .  A
O398       Cr415   1.949       .  S
O398        C399   1.259       .  A
C399        O400   1.275       .  A
C399       C1993   1.484       .  S
O400       Cr416   2.046       .  S
O401       Cr416   1.991       .  S
O401        C402   1.263       .  A
C402        O403   1.262       .  A
C402       C2620   1.478       .  S
O403       Cr417   1.993       .  S
O404       Cr417   2.008       .  S
O404        C405   1.264       .  A
C405       C2005   1.488       .  S
O406       Cr415   1.983       .  S
O406        C414   1.264       .  A
O407       Cr415   1.988       .  S
O407        C408   1.256       .  A
C408        O409   1.258       .  A
C408       C1972   1.479       .  S
O409       Cr416   2.009       .  S
O410       Cr416   2.009       .  S
O410        C411   1.268       .  A
C411        O412   1.262       .  A
C411       C2104   1.480       .  S
O412       Cr417   1.977       .  S
O413       Cr417   2.008       .  S
O413        C414   1.269       .  A
C414       C1981   1.494       .  S
Cr415       O418   1.766       .  S
Cr416       O418   1.781       .  S
Cr417       O418   1.770       .  S
O419       Cr437   1.989       .  S
O419        C427   1.261       .  A
O420       Cr437   1.949       .  S
O420        C421   1.258       .  A
C421        O422   1.275       .  A
C421       C1933   1.486       .  S
O422       Cr438   2.049       .  S
O423       Cr438   2.001       .  S
O423        C424   1.264       .  A
C424        O425   1.264       .  A
C424       C2152   1.492       .  S
O425       Cr439   2.002       .  S
O426       Cr439   1.995       .  S
O426        C427   1.262       .  A
C427       C1984   1.473       .  S
O428       Cr437   1.977       .  S
O428        C436   1.261       .  A
O429       Cr437   1.996       .  S
O429        C430   1.259       .  A
C430        O431   1.260       .  A
C430       C1945   1.483       .  S
O431       Cr438   2.008       .  S
O432       Cr438   2.027       .  S
O432        C433   1.273       .  A
C433        O434   1.260       .  A
C433       C1921   1.498       .  S
O434       Cr439   1.967       .  S
O435       Cr439   2.016       .  S
O435        C436   1.269       .  A
C436       C1957   1.496       .  S
Cr437       O440   1.766       .  S
Cr438       O440   1.775       .  S
Cr439       O440   1.770       .  S
O441       Cr459   1.993       .  S
O441        C449   1.261       .  A
O442       Cr459   1.955       .  S
O442        C443   1.259       .  A
C443        O444   1.275       .  A
C443       C1912   1.486       .  S
O444       Cr460   2.050       .  S
O445       Cr460   1.985       .  S
O445        C446   1.262       .  A
C446        O447   1.270       .  A
C446       C1885   1.496       .  S
O447       Cr461   2.010       .  S
O448       Cr461   1.995       .  S
O448        C449   1.261       .  A
C449       C1960   1.474       .  S
O450       Cr459   1.974       .  S
O450        C458   1.263       .  A
O451       Cr459   1.997       .  S
O451        C452   1.259       .  A
C452        O453   1.259       .  A
C452       C1897   1.477       .  S
O453       Cr460   2.003       .  S
O454       Cr460   2.020       .  S
O454        C455   1.270       .  A
C455        O456   1.260       .  A
C455       C2668   1.483       .  S
O456       Cr461   1.976       .  S
O457       Cr461   2.022       .  S
O457        C458   1.270       .  A
C458       C2008   1.487       .  S
Cr459       O462   1.760       .  S
Cr460       O462   1.774       .  S
Cr461       O462   1.768       .  S
O463       Cr481   1.984       .  S
O463        C471   1.266       .  A
O464       Cr481   1.996       .  S
O464        C465   1.259       .  A
C465        O466   1.260       .  A
C465       C1936   1.479       .  S
O466       Cr482   2.004       .  S
O467       Cr482   2.021       .  S
O467        C468   1.269       .  A
C468        O469   1.261       .  A
C468       C2524   1.484       .  S
O469       Cr483   1.974       .  S
O470       Cr483   2.023       .  S
O470        C471   1.269       .  A
C471       C1873   1.499       .  S
O472       Cr481   1.991       .  S
O472        C480   1.260       .  A
O473       Cr481   1.960       .  S
O473        C474   1.260       .  A
C474        O475   1.274       .  A
C474       C1969   1.485       .  S
O475       Cr482   2.044       .  S
O476       Cr482   1.988       .  S
O476        C477   1.262       .  A
C477        O478   1.269       .  A
C477       C1849   1.498       .  S
O478       Cr483   2.012       .  S
O479       Cr483   1.996       .  S
O479        C480   1.262       .  A
C480       C1861   1.470       .  S
Cr481       O484   1.762       .  S
Cr482       O484   1.776       .  S
Cr483       O484   1.767       .  S
O485       Cr503   1.982       .  S
O485        C493   1.265       .  A
O486       Cr503   1.990       .  S
O486        C487   1.256       .  A
C487        O488   1.260       .  A
C487       C1909   1.485       .  S
O488       Cr504   2.015       .  S
O489       Cr504   2.020       .  S
O489        C490   1.269       .  A
C490        O491   1.266       .  A
C490       C2068   1.503       .  S
O491       Cr505   1.987       .  S
O492       Cr505   2.015       .  S
O492        C493   1.271       .  A
C493       C1837   1.496       .  S
O494       Cr503   1.989       .  S
O494        C502   1.257       .  A
O495       Cr503   1.952       .  S
O495        C496   1.259       .  A
C496        O497   1.276       .  A
C496       C1948   1.490       .  S
O497       Cr504   2.053       .  S
O498       Cr504   2.000       .  S
O498        C499   1.265       .  A
C499        O500   1.265       .  A
C499       C2560   1.494       .  S
O500       Cr505   2.000       .  S
O501       Cr505   2.017       .  S
O501        C502   1.265       .  A
C502       C1876   1.490       .  S
Cr503       O506   1.772       .  S
Cr504       O506   1.786       .  S
Cr505       O506   1.773       .  S
O507       Cr525   1.985       .  S
O507        C515   1.263       .  A
O508       Cr525   2.003       .  S
O508        C509   1.262       .  A
C509        O510   1.259       .  A
C509       C1996   1.481       .  S
O510       Cr526   1.999       .  S
O511       Cr526   2.025       .  S
O511        C512   1.271       .  A
C512        O513   1.263       .  A
C512       C1825   1.494       .  S
O513       Cr527   1.971       .  S
O514       Cr527   2.007       .  S
O514        C515   1.267       .  A
C515       C1864   1.492       .  S
O516       Cr525   1.999       .  S
O516        C524   1.263       .  A
O517       Cr525   1.953       .  S
O517        C518   1.257       .  A
C518        O519   1.273       .  A
C518       C1900   1.485       .  S
O519       Cr526   2.042       .  S
O520       Cr526   1.992       .  S
O520        C521   1.262       .  A
C521        O522   1.262       .  A
C521       C2032   1.477       .  S
O522       Cr527   1.995       .  S
O523       Cr527   1.992       .  S
O523        C524   1.262       .  A
C524       C1840   1.473       .  S
Cr525       O528   1.770       .  S
Cr526       O528   1.780       .  S
Cr527       O528   1.768       .  S
O529       Cr547   1.972       .  S
O529        C537   1.262       .  A
O530       Cr547   1.996       .  S
O530        C531   1.258       .  A
C531        O532   1.258       .  A
C531       C1804   1.477       .  S
O532       Cr548   2.001       .  S
O533       Cr548   2.018       .  S
O533        C534   1.269       .  A
C534        O535   1.262       .  A
C534       C1765   1.484       .  S
O535       Cr549   1.968       .  S
O536       Cr549   2.021       .  S
O536        C537   1.269       .  A
C537       C1792   1.493       .  S
O538       Cr547   1.995       .  S
O538        C546   1.263       .  A
O539       Cr547   1.949       .  S
O539        C540   1.257       .  A
C540        O541   1.276       .  A
C540       C1813   1.482       .  S
O541       Cr548   2.047       .  S
O542       Cr548   1.989       .  S
O542        C543   1.263       .  A
C543        O544   1.265       .  A
C543       C2713   1.475       .  S
O544       Cr549   1.999       .  S
O545       Cr549   1.991       .  S
O545        C546   1.259       .  A
C546       C1777   1.479       .  S
Cr547       O550   1.764       .  S
Cr548       O550   1.776       .  S
Cr549       O550   1.766       .  S
O551       Cr569   1.989       .  S
O551        C559   1.260       .  A
O552       Cr569   1.942       .  S
O552        C553   1.254       .  A
C553        O554   1.276       .  A
C553       C1801   1.478       .  S
O554       Cr570   2.050       .  S
O555       Cr570   1.991       .  S
O555        C556   1.263       .  A
C556        O557   1.264       .  A
C556       C1717   1.476       .  S
O557       Cr571   2.000       .  S
O558       Cr571   2.000       .  S
O558        C559   1.263       .  A
C559       C1729   1.479       .  S
O560       Cr569   1.961       .  S
O560        C568   1.260       .  A
O561       Cr569   1.988       .  S
O561        C562   1.256       .  A
C562        O563   1.259       .  A
C562       C1744   1.480       .  S
O563       Cr570   2.009       .  S
O564       Cr570   2.021       .  S
O564        C565   1.271       .  A
C565        O566   1.262       .  A
C565       C2536   1.498       .  S
O566       Cr571   1.980       .  S
O567       Cr571   2.018       .  S
O567        C568   1.268       .  A
C568       C1756   1.485       .  S
Cr569       O572   1.764       .  S
Cr570       O572   1.776       .  S
Cr571       O572   1.771       .  S
O573       Cr591   1.971       .  S
O573        C581   1.261       .  A
O574       Cr591   1.995       .  S
O574        C575   1.258       .  A
C575        O576   1.257       .  A
C575       C1705   1.475       .  S
O576       Cr592   1.999       .  S
O577       Cr592   2.013       .  S
O577        C578   1.269       .  A
C578        O579   1.261       .  A
C578       C1681   1.495       .  S
O579       Cr593   1.979       .  S
O580       Cr593   2.021       .  S
O580        C581   1.272       .  A
C581       C1693   1.495       .  S
O582       Cr591   1.989       .  S
O582        C590   1.259       .  A
O583       Cr591   1.949       .  S
O583        C584   1.255       .  A
C584        O585   1.275       .  A
C584       C1741   1.478       .  S
O585       Cr592   2.050       .  S
O586       Cr592   1.986       .  S
O586        C587   1.262       .  A
C587        O588   1.266       .  A
C587       C1669   1.478       .  S
O588       Cr593   2.006       .  S
O589       Cr593   1.998       .  S
O589        C590   1.262       .  A
C590       C1789   1.478       .  S
Cr591       O594   1.766       .  S
Cr592       O594   1.779       .  S
Cr593       O594   1.772       .  S
O595       Cr613   1.966       .  S
O595        C603   1.257       .  A
O596       Cr613   1.988       .  S
O596        C597   1.258       .  A
C597        O598   1.259       .  A
C597       C1657   1.475       .  S
O598       Cr614   2.002       .  S
O599       Cr614   2.015       .  S
O599        C600   1.267       .  A
C600        O601   1.262       .  A
C600       C2656   1.487       .  S
O601       Cr615   1.975       .  S
O602       Cr615   2.031       .  S
O602        C603   1.273       .  A
C603       C1780   1.494       .  S
O604       Cr613   1.988       .  S
O604        C612   1.260       .  A
O605       Cr613   1.959       .  S
O605        C606   1.258       .  A
C606        O607   1.274       .  A
C606       C1645   1.478       .  S
O607       Cr614   2.042       .  S
O608       Cr614   1.984       .  S
O608        C609   1.262       .  A
C609        O610   1.269       .  A
C609       C1636   1.480       .  S
O610       Cr615   2.015       .  S
O611       Cr615   1.992       .  S
O611        C612   1.260       .  A
C612       C1696   1.474       .  S
Cr613       O616   1.763       .  S
Cr614       O616   1.776       .  S
Cr615       O616   1.771       .  S
O617       Cr635   1.989       .  S
O617        C625   1.258       .  A
O618       Cr635   1.950       .  S
O618        C619   1.257       .  A
C619        O620   1.275       .  A
C619       C1660   1.475       .  S
O620       Cr636   2.044       .  S
O621       Cr636   1.983       .  S
O621        C622   1.261       .  A
C622        O623   1.267       .  A
C622       C1609   1.488       .  S
O623       Cr637   2.002       .  S
O624       Cr637   2.004       .  S
O624        C625   1.262       .  A
C625       C1621   1.482       .  S
O626       Cr635   1.975       .  S
O626        C634   1.265       .  A
O627       Cr635   1.988       .  S
O627        C628   1.256       .  A
C628        O629   1.259       .  A
C628       C1816   1.474       .  S
O629       Cr636   2.006       .  S
O630       Cr636   2.018       .  S
O630        C631   1.268       .  A
C631        O632   1.263       .  A
C631       C1597   1.500       .  S
O632       Cr637   1.975       .  S
O633       Cr637   2.019       .  S
O633        C634   1.271       .  A
C634       C1732   1.487       .  S
Cr635       O638   1.761       .  S
Cr636       O638   1.774       .  S
Cr637       O638   1.765       .  S
O639       Cr657   1.981       .  S
O639        C647   1.256       .  A
O640       Cr657   1.950       .  S
O640        C641   1.257       .  A
C641        O642   1.275       .  A
C641       C1708   1.480       .  S
O642       Cr658   2.047       .  S
O643       Cr658   1.989       .  S
O643        C644   1.264       .  A
C644        O645   1.268       .  A
C644       C2512   1.491       .  S
O645       Cr659   2.001       .  S
O646       Cr659   2.000       .  S
O646        C647   1.261       .  A
C647       C1753   1.474       .  S
O648       Cr657   1.969       .  S
O648        C656   1.264       .  A
O649       Cr657   1.986       .  S
O649        C650   1.254       .  A
C650        O651   1.261       .  A
C650       C1648   1.477       .  S
O651       Cr658   2.016       .  S
O652       Cr658   2.015       .  S
O652        C653   1.267       .  A
C653        O654   1.262       .  A
C653       C1585   1.494       .  S
O654       Cr659   1.974       .  S
O655       Cr659   2.026       .  S
O655        C656   1.272       .  A
C656       C1624   1.489       .  S
Cr657       O660   1.761       .  S
Cr658       O660   1.774       .  S
Cr659       O660   1.767       .  S
O661       Cr679   1.990       .  S
O661        C669   1.263       .  A
O662       Cr679   1.952       .  S
O662        C663   1.254       .  A
C663        O664   1.277       .  A
C663       C1576   1.483       .  S
O664       Cr680   2.055       .  S
O665       Cr680   1.980       .  S
O665        C666   1.264       .  A
C666        O667   1.269       .  A
C666       C1525   1.485       .  S
O667       Cr681   2.008       .  S
O668       Cr681   1.988       .  S
O668        C669   1.259       .  A
C669       C1537   1.475       .  S
O670       Cr679   1.949       .  S
O670        C678   1.255       .  A
O671       Cr679   2.008       .  S
O671        C672   1.263       .  A
C672        O673   1.258       .  A
C672       C1561   1.480       .  S
O673       Cr680   1.997       .  S
O674       Cr680   2.025       .  S
O674        C675   1.269       .  A
C675        O676   1.261       .  A
C675       C1684   1.499       .  S
O676       Cr681   1.975       .  S
O677       Cr681   2.028       .  S
O677        C678   1.271       .  A
C678       C1549   1.477       .  S
Cr679       O682   1.756       .  S
Cr680       O682   1.769       .  S
Cr681       O682   1.767       .  S
O683       Cr701   1.971       .  S
O683        C691   1.258       .  A
O684       Cr701   1.996       .  S
O684        C685   1.259       .  A
C685        O686   1.259       .  A
C685       C1501   1.479       .  S
O686       Cr702   1.999       .  S
O687       Cr702   2.021       .  S
O687        C688   1.268       .  A
C688        O689   1.263       .  A
C688       C1924   1.500       .  S
O689       Cr703   1.975       .  S
O690       Cr703   2.022       .  S
O690        C691   1.270       .  A
C691       C1492   1.496       .  S
O692       Cr701   1.993       .  S
O692        C700   1.262       .  A
O693       Cr701   1.956       .  S
O693        C694   1.255       .  A
C694        O695   1.274       .  A
C694       C1513   1.486       .  S
O695       Cr702   2.051       .  S
O696       Cr702   1.995       .  S
O696        C697   1.266       .  A
C697        O698   1.266       .  A
C697       C1477   1.493       .  S
O698       Cr703   2.004       .  S
O699       Cr703   1.994       .  S
O699        C700   1.262       .  A
C700       C1540   1.478       .  S
Cr701       O704   1.764       .  S
Cr702       O704   1.778       .  S
Cr703       O704   1.770       .  S
O705       Cr723   1.960       .  S
O705        C713   1.260       .  A
O706       Cr723   1.991       .  S
O706        C707   1.257       .  A
C707        O708   1.261       .  A
C707       C1465   1.486       .  S
O708       Cr724   2.016       .  S
O709       Cr724   2.025       .  S
O709        C710   1.271       .  A
C710        O711   1.262       .  A
C710       C1633   1.497       .  S
O711       Cr725   1.976       .  S
O712       Cr725   2.019       .  S
O712        C713   1.270       .  A
C713       C1552   1.475       .  S
O714       Cr723   1.982       .  S
O714        C722   1.258       .  A
O715       Cr723   1.951       .  S
O715        C716   1.256       .  A
C716        O717   1.279       .  A
C716       C1453   1.484       .  S
O717       Cr724   2.059       .  S
O718       Cr724   1.998       .  S
O718        C719   1.267       .  A
C719        O720   1.265       .  A
C719       C1888   1.496       .  S
O720       Cr725   1.997       .  S
O721       Cr725   2.002       .  S
O721        C722   1.262       .  A
C722       C1489   1.475       .  S
Cr723       O726   1.761       .  S
Cr724       O726   1.772       .  S
Cr725       O726   1.768       .  S
O727       Cr745   1.992       .  S
O727        C735   1.262       .  A
O728       Cr745   1.954       .  S
O728        C729   1.257       .  A
C729        O730   1.278       .  A
C729       C1468   1.485       .  S
O730       Cr746   2.056       .  S
O731       Cr746   1.995       .  S
O731        C732   1.263       .  A
C732        O733   1.266       .  A
C732       C1417   1.497       .  S
O733       Cr747   1.996       .  S
O734       Cr747   1.990       .  S
O734        C735   1.259       .  A
C735       C1429   1.475       .  S
O736       Cr745   1.972       .  S
O736        C744   1.260       .  A
O737       Cr745   1.997       .  S
O737        C738   1.259       .  A
C738        O739   1.260       .  A
C738       C1564   1.484       .  S
O739       Cr746   2.004       .  S
O740       Cr746   2.033       .  S
O740        C741   1.274       .  A
C741        O742   1.258       .  A
C741       C1828   1.495       .  S
O742       Cr747   1.960       .  S
O743       Cr747   2.018       .  S
O743        C744   1.271       .  A
C744       C1441   1.493       .  S
Cr745       O748   1.762       .  S
Cr746       O748   1.773       .  S
Cr747       O748   1.767       .  S
O749       Cr767   1.983       .  S
O749        C757   1.259       .  A
O750       Cr767   1.952       .  S
O750        C751   1.256       .  A
C751        O752   1.276       .  A
C751       C1573   1.480       .  S
O752       Cr768   2.052       .  S
O753       Cr768   2.003       .  S
O753        C754   1.268       .  A
C754        O755   1.266       .  A
C754       C1852   1.499       .  S
O755       Cr769   2.002       .  S
O756       Cr769   1.994       .  S
O756        C757   1.261       .  A
C757       C1444   1.469       .  S
O758       Cr767   1.965       .  S
O758        C766   1.261       .  A
O759       Cr767   1.992       .  S
O759        C760   1.258       .  A
C760        O761   1.263       .  A
C760       C1516   1.485       .  S
O761       Cr768   2.020       .  S
O762       Cr768   2.019       .  S
O762        C763   1.269       .  A
C763        O764   1.261       .  A
C763       C1720   1.487       .  S
O764       Cr769   1.978       .  S
O765       Cr769   2.012       .  S
O765        C766   1.268       .  A
C766       C1405   1.482       .  S
Cr767       O770   1.761       .  S
Cr768       O770   1.770       .  S
Cr769       O770   1.765       .  S
O771       Cr789   1.955       .  S
O771        C779   1.255       .  A
O772       Cr789   2.001       .  S
O772        C773   1.259       .  A
C773        O774   1.258       .  A
C773       C1504   1.483       .  S
O774       Cr790   2.002       .  S
O775       Cr790   2.023       .  S
O775        C776   1.271       .  A
C776        O777   1.258       .  A
C776       C1600   1.498       .  S
O777       Cr791   1.969       .  S
O778       Cr791   2.029       .  S
O778        C779   1.274       .  A
C779       C1408   1.487       .  S
O780       Cr789   1.993       .  S
O780        C788   1.260       .  A
O781       Cr789   1.952       .  S
O781        C782   1.255       .  A
C782        O783   1.277       .  A
C782       C1456   1.482       .  S
O783       Cr790   2.056       .  S
O784       Cr790   1.983       .  S
O784        C785   1.264       .  A
C785        O786   1.269       .  A
C785       C1393   1.488       .  S
O786       Cr791   2.006       .  S
O787       Cr791   1.997       .  S
O787        C788   1.260       .  A
C788       C1432   1.480       .  S
Cr789       O792   1.760       .  S
Cr790       O792   1.773       .  S
Cr791       O792   1.769       .  S
O793       Cr811   2.000       .  S
O793        C801   1.262       .  A
O794       Cr811   1.955       .  S
O794        C795   1.258       .  A
C795        O796   1.273       .  A
C795       C1357   1.484       .  S
O796       Cr812   2.042       .  S
O797       Cr812   1.982       .  S
O797        C798   1.263       .  A
C798        O799   1.273       .  A
C798       C2284   1.496       .  S
O799       Cr813   2.017       .  S
O800       Cr813   1.986       .  S
O800        C801   1.258       .  A
C801       C1372   1.467       .  S
O802       Cr811   1.955       .  S
O802        C810   1.255       .  A
O803       Cr811   2.005       .  S
O803        C804   1.262       .  A
C804        O805   1.261       .  A
C804       C1345   1.483       .  S
O805       Cr812   2.002       .  S
O806       Cr812   2.014       .  S
O806        C807   1.266       .  A
C807        O808   1.259       .  A
C807       C1333   1.485       .  S
O808       Cr813   1.976       .  S
O809       Cr813   2.032       .  S
O809        C810   1.273       .  A
C810       C1381   1.492       .  S
Cr811       O814   1.760       .  S
Cr812       O814   1.771       .  S
Cr813       O814   1.764       .  S
O815       Cr833   1.970       .  S
O815        C823   1.263       .  A
O816       Cr833   1.991       .  S
O816        C817   1.255       .  A
C817        O818   1.259       .  A
C817       C1312   1.478       .  S
O818       Cr834   2.011       .  S
O819       Cr834   2.018       .  S
O819        C820   1.268       .  A
C820        O821   1.260       .  A
C820       C1285   1.487       .  S
O821       Cr835   1.971       .  S
O822       Cr835   2.017       .  S
O822        C823   1.270       .  A
C823       C1384   1.486       .  S
O824       Cr833   1.990       .  S
O824        C832   1.259       .  A
O825       Cr833   1.948       .  S
O825        C826   1.258       .  A
C826        O827   1.275       .  A
C826       C1297   1.478       .  S
O827       Cr834   2.044       .  S
O828       Cr834   1.987       .  S
O828        C829   1.264       .  A
C829        O830   1.267       .  A
C829       C1612   1.489       .  S
O830       Cr835   2.002       .  S
O831       Cr835   1.996       .  S
O831        C832   1.261       .  A
C832       C1321   1.476       .  S
Cr833       O836   1.762       .  S
Cr834       O836   1.776       .  S
Cr835       O836   1.766       .  S
O837       Cr855   1.970       .  S
O837        C845   1.264       .  A
O838       Cr855   2.002       .  S
O838        C839   1.260       .  A
C839        O840   1.257       .  A
C839       C1273   1.479       .  S
O840       Cr856   1.994       .  S
O841       Cr856   2.023       .  S
O841        C842   1.270       .  A
C842        O843   1.257       .  A
C842       C1588   1.495       .  S
O843       Cr857   1.965       .  S
O844       Cr857   2.024       .  S
O844        C845   1.270       .  A
C845       C1324   1.495       .  S
O846       Cr855   1.994       .  S
O846        C854   1.260       .  A
O847       Cr855   1.961       .  S
O847        C848   1.260       .  A
C848        O849   1.276       .  A
C848       C1261   1.480       .  S
O849       Cr856   2.048       .  S
O850       Cr856   1.972       .  S
O850        C851   1.259       .  A
C851        O852   1.267       .  A
C851       C2260   1.466       .  S
O852       Cr857   2.005       .  S
O853       Cr857   1.989       .  S
O853        C854   1.257       .  A
C854       C1369   1.471       .  S
Cr855       O858   1.762       .  S
Cr856       O858   1.777       .  S
Cr857       O858   1.770       .  S
O859       Cr877   1.972       .  S
O859        C867   1.263       .  A
O860       Cr877   1.989       .  S
O860        C861   1.256       .  A
C861        O862   1.258       .  A
C861       C1360   1.477       .  S
O862       Cr878   2.006       .  S
O863       Cr878   2.017       .  S
O863        C864   1.269       .  A
C864        O865   1.262       .  A
C864       C1672   1.489       .  S
O865       Cr879   1.979       .  S
O866       Cr879   2.027       .  S
O866        C867   1.274       .  A
C867       C1252   1.497       .  S
O868       Cr877   1.978       .  S
O868        C876   1.255       .  A
O869       Cr877   1.949       .  S
O869        C870   1.256       .  A
C870        O871   1.276       .  A
C870       C1264   1.480       .  S
O871       Cr878   2.050       .  S
O872       Cr878   1.985       .  S
O872        C873   1.262       .  A
C873        O874   1.268       .  A
C873       C1225   1.492       .  S
O874       Cr879   2.009       .  S
O875       Cr879   2.009       .  S
O875        C876   1.263       .  A
C876       C1237   1.478       .  S
Cr877       O880   1.762       .  S
Cr878       O880   1.777       .  S
Cr879       O880   1.766       .  S
O881       Cr899   1.977       .  S
O881        C889   1.265       .  A
O882       Cr899   1.998       .  S
O882        C883   1.260       .  A
C883        O884   1.260       .  A
C883       C1276   1.476       .  S
O884       Cr900   2.000       .  S
O885       Cr900   2.008       .  S
O885        C886   1.267       .  A
C886        O887   1.257       .  A
C886       C1201   1.490       .  S
O887       Cr901   1.968       .  S
O888       Cr901   2.006       .  S
O888        C889   1.265       .  A
C889       C1240   1.491       .  S
O890       Cr899   1.990       .  S
O890        C898   1.260       .  A
O891       Cr899   1.968       .  S
O891        C892   1.260       .  A
C892        O893   1.270       .  A
C892       C1300   1.479       .  S
O893       Cr900   2.029       .  S
O894       Cr900   1.984       .  S
O894        C895   1.263       .  A
C895        O896   1.266       .  A
C895       C2380   1.484       .  S
O896       Cr901   1.992       .  S
O897       Cr901   1.984       .  S
O897        C898   1.259       .  A
C898       C1216   1.465       .  S
Cr899       O902   1.761       .  S
Cr900       O902   1.774       .  S
Cr901       O902   1.769       .  S
O903       Cr921   2.000       .  S
O903        C911   1.262       .  A
O904       Cr921   1.958       .  S
O904        C905   1.257       .  A
C905        O906   1.274       .  A
C905       C1309   1.479       .  S
O906       Cr922   2.043       .  S
O907       Cr922   1.998       .  S
O907        C908   1.267       .  A
C908        O909   1.269       .  A
C908       C2344   1.498       .  S
O909       Cr923   2.012       .  S
O910       Cr923   1.969       .  S
O910        C911   1.255       .  A
C911       C1213   1.462       .  S
O912       Cr921   1.965       .  S
O912        C920   1.260       .  A
O913       Cr921   2.000       .  S
O913        C914   1.261       .  A
C914        O915   1.262       .  A
C914       C1348   1.483       .  S
O915       Cr922   2.006       .  S
O916       Cr922   2.026       .  S
O916        C917   1.269       .  A
C917        O918   1.257       .  A
C917       C1768   1.480       .  S
O918       Cr923   1.961       .  S
O919       Cr923   2.026       .  S
O919        C920   1.269       .  A
C920       C1249   1.494       .  S
Cr921       O924   1.764       .  S
Cr922       O924   1.776       .  S
Cr923       O924   1.764       .  S
O925       Cr943   1.990       .  S
O925        C933   1.257       .  A
O926       Cr943   1.947       .  S
O926        C927   1.256       .  A
C927        O928   1.275       .  A
C927       C1177   1.471       .  S
O928       Cr944   2.044       .  S
O929       Cr944   1.994       .  S
O929        C930   1.265       .  A
C930        O931   1.267       .  A
C930       C2044   1.487       .  S
O931       Cr945   2.003       .  S
O932       Cr945   2.002       .  S
O932        C933   1.261       .  A
C933       C1189   1.483       .  S
O934       Cr943   1.969       .  S
O934        C942   1.261       .  A
O935       Cr943   1.997       .  S
O935        C936   1.256       .  A
C936        O937   1.260       .  A
C936       C1153   1.483       .  S
O937       Cr944   2.013       .  S
O938       Cr944   2.015       .  S
O938        C939   1.268       .  A
C939        O940   1.260       .  A
C939       C1420   1.491       .  S
O940       Cr945   1.973       .  S
O941       Cr945   2.014       .  S
O941        C942   1.271       .  A
C942       C1165   1.485       .  S
Cr943       O946   1.763       .  S
Cr944       O946   1.780       .  S
Cr945       O946   1.767       .  S
O947       Cr965   1.980       .  S
O947        C955   1.255       .  A
O948       Cr965   1.957       .  S
O948        C949   1.260       .  A
C949        O950   1.275       .  A
C949       C1180   1.476       .  S
O950       Cr966   2.036       .  S
O951       Cr966   2.005       .  S
O951        C952   1.264       .  A
C952        O953   1.261       .  A
C952       C1228   1.494       .  S
O953       Cr967   1.984       .  S
O954       Cr967   2.010       .  S
O954        C955   1.262       .  A
C955       C1144   1.477       .  S
O956       Cr965   1.978       .  S
O956        C964   1.266       .  A
O957       Cr965   1.989       .  S
O957        C958   1.255       .  A
C958        O959   1.260       .  A
C958       C1132   1.486       .  S
O959       Cr966   2.014       .  S
O960       Cr966   2.010       .  S
O960        C961   1.268       .  A
C961        O962   1.262       .  A
C961       C1528   1.473       .  S
O962       Cr967   1.972       .  S
O963       Cr967   2.009       .  S
O963        C964   1.271       .  A
C964       C1117   1.482       .  S
Cr965       O968   1.769       .  S
Cr966       O968   1.778       .  S
Cr967       O968   1.772       .  S
O969       Cr987   1.982       .  S
O969        C977   1.258       .  A
O970       Cr987   1.948       .  S
O970        C971   1.255       .  A
C971        O972   1.275       .  A
C971       C1108   1.475       .  S
O972       Cr988   2.047       .  S
O973       Cr988   2.007       .  S
O973        C974   1.267       .  A
C974        O975   1.266       .  A
C974       C2200   1.500       .  S
O975       Cr989   2.004       .  S
O976       Cr989   2.001       .  S
O976        C977   1.262       .  A
C977       C1093   1.476       .  S
O978       Cr987   1.977       .  S
O978        C986   1.263       .  A
O979       Cr987   1.996       .  S
O979        C980   1.257       .  A
C980        O981   1.261       .  A
C980       C1156   1.485       .  S
O981       Cr988   2.014       .  S
O982       Cr988   2.015       .  S
O982        C983   1.268       .  A
C983        O984   1.261       .  A
C983       C1204   1.490       .  S
O984       Cr989   1.963       .  S
O985       Cr989   2.022       .  S
O985        C986   1.272       .  A
C986       C1141   1.496       .  S
Cr987       O990   1.762       .  S
Cr988       O990   1.776       .  S
Cr989       O990   1.766       .  S
O991      Cr1009   1.995       .  S
O991        C999   1.261       .  A
O992      Cr1009   1.956       .  S
O992        C993   1.259       .  A
C993        O994   1.271       .  A
C993       C1081   1.478       .  S
O994      Cr1010   2.029       .  S
O995      Cr1010   1.993       .  S
O995        C996   1.265       .  A
C996        O997   1.268       .  A
C996       C1480   1.492       .  S
O997      Cr1011   2.006       .  S
O998      Cr1011   1.983       .  S
O998        C999   1.258       .  A
C999       C1120   1.464       .  S
O1000     Cr1009   1.967       .  S
O1000      C1008   1.262       .  A
O1001     Cr1009   2.003       .  S
O1001      C1002   1.261       .  A
C1002      O1003   1.264       .  A
C1002      C1069   1.488       .  S
O1003     Cr1010   2.014       .  S
O1004     Cr1010   2.017       .  S
O1004      C1005   1.266       .  A
C1005      O1006   1.258       .  A
C1005      C2140   1.481       .  S
O1006     Cr1011   1.958       .  S
O1007     Cr1011   2.017       .  S
O1007      C1008   1.268       .  A
C1008      C1096   1.489       .  S
Cr1009     O1012   1.758       .  S
Cr1010     O1012   1.772       .  S
Cr1011     O1012   1.762       .  S
O1013     Cr1031   1.977       .  S
O1013      C1021   1.256       .  A
O1014     Cr1031   1.955       .  S
O1014      C1015   1.259       .  A
C1015      O1016   1.280       .  A
C1015      C1105   1.484       .  S
O1016     Cr1032   2.053       .  S
O1017     Cr1032   1.989       .  S
O1017      C1018   1.263       .  A
C1018      O1019   1.267       .  A
C1018      C1396   1.492       .  S
O1019     Cr1033   2.001       .  S
O1020     Cr1033   2.003       .  S
O1020      C1021   1.260       .  A
C1021      C1168   1.472       .  S
O1022     Cr1031   1.961       .  S
O1022      C1030   1.264       .  A
O1023     Cr1031   1.993       .  S
O1023      C1024   1.255       .  A
C1024      O1025   1.261       .  A
C1024      C1072   1.488       .  S
O1025     Cr1032   2.019       .  S
O1026     Cr1032   2.026       .  S
O1026      C1027   1.271       .  A
C1027      O1028   1.260       .  A
C1027      C1288   1.489       .  S
O1028     Cr1033   1.965       .  S
O1029     Cr1033   2.033       .  S
O1029      C1030   1.273       .  A
C1030      C1057   1.491       .  S
Cr1031     O1034   1.760       .  S
Cr1032     O1034   1.772       .  S
Cr1033     O1034   1.769       .  S
O1035     Cr1053   1.989       .  S
O1035      C1043   1.260       .  A
O1036     Cr1053   1.957       .  S
O1036      C1037   1.256       .  A
C1037      O1038   1.270       .  A
C1037      C1084   1.472       .  S
O1038     Cr1054   2.031       .  S
O1039     Cr1054   1.986       .  S
O1039      C1040   1.264       .  A
C1040      O1041   1.267       .  A
C1040      C1336   1.472       .  S
O1041     Cr1055   2.005       .  S
O1042     Cr1055   1.999       .  S
O1042      C1043   1.262       .  A
C1043      C1060   1.480       .  S
O1044     Cr1053   1.971       .  S
O1044      C1052   1.263       .  A
O1045     Cr1053   1.999       .  S
O1045      C1046   1.259       .  A
C1046      O1047   1.262       .  A
C1046      C1129   1.481       .  S
O1047     Cr1054   2.010       .  S
O1048     Cr1054   2.005       .  S
O1048      C1049   1.265       .  A
C1049      O1050   1.261       .  A
C1049      C2020   1.484       .  S
O1050     Cr1055   1.976       .  S
O1051     Cr1055   2.024       .  S
O1051      C1052   1.269       .  A
C1052      C1192   1.495       .  S
Cr1053     O1056   1.758       .  S
Cr1054     O1056   1.779       .  S
Cr1055     O1056   1.772       .  S
C1057      C1058   1.403       .  A
C1057      C1062   1.420       .  A
C1058      C1059   1.386       .  A
C1058      H1067   1.084       .  S
C1059      C1060   1.410       .  A
C1059      S1063   1.796       .  S
C1060      C1061   1.405       .  A
C1061      C1062   1.413       .  A
C1061      H1068   1.083       .  S
C1062      S1064   1.806       .  S
S1063      H1066   1.404       .  S
S1064      H1065   1.407       .  S
C1069      C1070   1.404       .  A
C1069      C1074   1.412       .  A
C1070      C1071   1.406       .  A
C1070      H1079   1.084       .  S
C1071      C1072   1.415       .  A
C1071      S1075   1.801       .  S
C1072      C1073   1.406       .  A
C1073      C1074   1.410       .  A
C1073      H1080   1.083       .  S
C1074      S1076   1.806       .  S
S1075      H1078   1.405       .  S
S1076      H1077   1.407       .  S
C1081      C1082   1.405       .  A
C1081      C1086   1.411       .  A
C1082      C1083   1.399       .  A
C1082      H1091   1.085       .  S
C1083      C1084   1.407       .  A
C1083      S1087   1.801       .  S
C1084      C1085   1.405       .  A
C1085      C1086   1.401       .  A
C1085      H1092   1.085       .  S
C1086      S1088   1.799       .  S
S1087      H1090   1.407       .  S
S1088      H1089   1.407       .  S
C1093      C1094   1.402       .  A
C1093      C1098   1.413       .  A
C1094      C1095   1.409       .  A
C1094      H1103   1.083       .  S
C1095      C1096   1.420       .  A
C1095      S1099   1.808       .  S
C1096      C1097   1.403       .  A
C1097      C1098   1.393       .  A
C1097      H1104   1.082       .  S
C1098      S1100   1.808       .  S
S1099      H1102   1.407       .  S
S1100      H1101   1.407       .  S
C1105      C1106   1.401       .  A
C1105      C1110   1.418       .  A
C1106      C1107   1.403       .  A
C1106      H1115   1.084       .  S
C1107      C1108   1.415       .  A
C1107      S1111   1.804       .  S
C1108      C1109   1.399       .  A
C1109      C1110   1.404       .  A
C1109      H1116   1.083       .  S
C1110      S1112   1.807       .  S
S1111      H1114   1.407       .  S
S1112      H1113   1.407       .  S
C1117      C1118   1.408       .  A
C1117      C1122   1.414       .  A
C1118      C1119   1.397       .  A
C1118      H1127   1.083       .  S
C1119      C1120   1.408       .  A
C1119      S1123   1.805       .  S
C1120      C1121   1.402       .  A
C1121      C1122   1.399       .  A
C1121      H1128   1.084       .  S
C1122      S1124   1.802       .  S
S1123      H1126   1.404       .  S
S1124      H1125   1.408       .  S
C1129      C1130   1.401       .  A
C1129      C1134   1.414       .  A
C1130      C1131   1.399       .  A
C1130      H1139   1.085       .  S
C1131      C1132   1.415       .  A
C1131      S1135   1.803       .  S
C1132      C1133   1.405       .  A
C1133      C1134   1.408       .  A
C1133      H1140   1.084       .  S
C1134      S1136   1.800       .  S
S1135      H1138   1.407       .  S
S1136      H1137   1.406       .  S
C1141      C1142   1.413       .  A
C1141      C1146   1.419       .  A
C1142      C1143   1.405       .  A
C1142      H1151   1.083       .  S
C1143      C1144   1.408       .  A
C1143      S1147   1.799       .  S
C1144      C1145   1.403       .  A
C1145      C1146   1.396       .  A
C1145      H1152   1.084       .  S
C1146      S1148   1.801       .  S
S1147      H1150   1.405       .  S
S1148      H1149   1.403       .  S
C1153      C1154   1.403       .  A
C1153      C1158   1.411       .  A
C1154      C1155   1.405       .  A
C1154      H1163   1.084       .  S
C1155      C1156   1.414       .  A
C1155      S1159   1.804       .  S
C1156      C1157   1.405       .  A
C1157      C1158   1.410       .  A
C1157      H1164   1.083       .  S
C1158      S1160   1.806       .  S
S1159      H1162   1.406       .  S
S1160      H1161   1.407       .  S
C1165      C1166   1.413       .  A
C1165      C1170   1.417       .  A
C1166      C1167   1.408       .  A
C1166      H1175   1.083       .  S
C1167      C1168   1.406       .  A
C1167      S1171   1.805       .  S
C1168      C1169   1.401       .  A
C1169      C1170   1.389       .  A
C1169      H1176   1.085       .  S
C1170      S1172   1.802       .  S
S1171      H1174   1.407       .  S
S1172      H1173   1.400       .  S
C1177      C1178   1.400       .  A
C1177      C1182   1.415       .  A
C1178      C1179   1.400       .  A
C1178      H1187   1.084       .  S
C1179      C1180   1.416       .  A
C1179      S1183   1.805       .  S
C1180      C1181   1.400       .  A
C1181      C1182   1.401       .  A
C1181      H1188   1.083       .  S
C1182      S1184   1.804       .  S
S1183      H1186   1.405       .  S
S1184      H1185   1.407       .  S
C1189      C1190   1.403       .  A
C1189      C1194   1.414       .  A
C1190      C1191   1.407       .  A
C1190      H1199   1.084       .  S
C1191      C1192   1.422       .  A
C1191      S1195   1.801       .  S
C1192      C1193   1.406       .  A
C1193      C1194   1.398       .  A
C1193      H1200   1.082       .  S
C1194      S1196   1.809       .  S
S1195      H1198   1.406       .  S
S1196      H1197   1.406       .  S
C1201      C1202   1.408       .  A
C1201      C1206   1.418       .  A
C1202      C1203   1.401   1_545  A
C1202      H1211   1.083       .  S
C1203      C1204   1.416       .  A
C1203      S1207   1.800       .  S
C1204      C1205   1.407       .  A
C1205      C1206   1.395   1_565  A
C1205      H1212   1.084       .  S
C1206      S1208   1.804       .  S
S1207      H1210   1.408       .  S
S1208      H1209   1.400       .  S
C1213      C1214   1.398       .  A
C1213      C1218   1.412       .  A
C1214      C1215   1.394       .  A
C1214      H1223   1.084       .  S
C1215      C1216   1.410       .  A
C1215      S1219   1.796       .  S
C1216      C1217   1.401       .  A
C1217      C1218   1.399       .  A
C1217      H1224   1.084       .  S
C1218      S1220   1.803       .  S
S1219      H1222   1.406       .  S
S1220      H1221   1.404       .  S
C1225      C1226   1.410       .  A
C1225      C1230   1.414       .  A
C1226      C1227   1.413   1_545  A
C1226      H1235   1.082       .  S
C1227      C1228   1.416       .  A
C1227      S1231   1.806       .  S
C1228      C1229   1.407       .  A
C1229      C1230   1.396   1_565  A
C1229      H1236   1.084       .  S
C1230      S1232   1.805       .  S
S1231      H1234   1.407       .  S
S1232      H1233   1.407       .  S
C1237      C1238   1.401       .  A
C1237      C1242   1.414       .  A
C1238      C1239   1.409       .  A
C1238      H1247   1.083       .  S
C1239      C1240   1.423       .  A
C1239      S1243   1.808       .  S
C1240      C1241   1.402       .  A
C1241      C1242   1.394       .  A
C1241      H1248   1.082       .  S
C1242      S1244   1.806       .  S
S1243      H1246   1.407       .  S
S1244      H1245   1.408       .  S
C1249      C1250   1.407       .  A
C1249      C1254   1.417       .  A
C1250      C1251   1.396       .  A
C1250      H1259   1.084       .  S
C1251      C1252   1.419       .  A
C1251      S1255   1.800       .  S
C1252      C1253   1.410       .  A
C1253      C1254   1.404       .  A
C1253      H1260   1.084       .  S
C1254      S1256   1.801       .  S
S1255      H1258   1.404       .  S
S1256      H1257   1.408       .  S
C1261      C1262   1.400       .  A
C1261      C1266   1.411       .  A
C1262      C1263   1.402       .  A
C1262      H1271   1.084       .  S
C1263      C1264   1.417       .  A
C1263      S1267   1.805       .  S
C1264      C1265   1.401       .  A
C1265      C1266   1.407       .  A
C1265      H1272   1.083       .  S
C1266      S1268   1.802       .  S
S1267      H1270   1.406       .  S
S1268      H1269   1.407       .  S
C1273      C1274   1.402       .  A
C1273      C1278   1.413       .  A
C1274      C1275   1.405       .  A
C1274      H1283   1.083       .  S
C1275      C1276   1.411       .  A
C1275      S1279   1.802       .  S
C1276      C1277   1.401       .  A
C1277      C1278   1.400       .  A
C1277      H1284   1.084       .  S
C1278      S1280   1.796       .  S
S1279      H1282   1.407       .  S
S1280      H1281   1.406       .  S
C1285      C1286   1.403       .  A
C1285      C1290   1.416       .  A
C1286      C1287   1.396       .  A
C1286      H1295   1.084       .  S
C1287      C1288   1.418       .  A
C1287      S1291   1.805       .  S
C1288      C1289   1.407       .  A
C1289      C1290   1.407       .  A
C1289      H1296   1.083       .  S
C1290      S1292   1.800       .  S
S1291      H1294   1.408       .  S
S1292      H1293   1.406       .  S
C1297      C1298   1.407       .  A
C1297      C1302   1.408       .  A
C1298      C1299   1.401       .  A
C1298      H1307   1.084       .  S
C1299      C1300   1.409       .  A
C1299      S1303   1.800       .  S
C1300      C1301   1.405       .  A
C1301      C1302   1.401       .  A
C1301      H1308   1.080       .  S
C1302      S1304   1.797       .  S
S1303      H1306   1.406       .  S
S1304      H1305   1.406       .  S
C1309      C1310   1.404       .  A
C1309      C1314   1.413       .  A
C1310      C1311   1.401       .  A
C1310      H1319   1.084       .  S
C1311      C1312   1.410       .  A
C1311      S1315   1.800       .  S
C1312      C1313   1.405       .  A
C1313      C1314   1.405       .  A
C1313      H1320   1.084       .  S
C1314      S1316   1.802       .  S
S1315      H1318   1.407       .  S
S1316      H1317   1.405       .  S
C1321      C1322   1.400       .  A
C1321      C1326   1.410       .  A
C1322      C1323   1.403       .  A
C1322      H1331   1.084       .  S
C1323      C1324   1.423       .  A
C1323      S1327   1.801       .  S
C1324      C1325   1.408       .  A
C1325      C1326   1.399       .  A
C1325      H1332   1.082       .  S
C1326      S1328   1.807       .  S
S1327      H1330   1.405       .  S
S1328      H1329   1.407       .  S
C1333      C1334   1.406       .  A
C1333      C1338   1.417       .  A
C1334      C1335   1.401       .  A
C1334      H1343   1.084       .  S
C1335      C1336   1.412       .  A
C1335      S1339   1.805       .  S
C1336      C1337   1.401       .  A
C1337      C1338   1.402       .  A
C1337      H1344   1.084       .  S
C1338      S1340   1.800       .  S
S1339      H1342   1.405       .  S
S1340      H1341   1.407       .  S
C1345      C1346   1.402       .  A
C1345      C1350   1.414       .  A
C1346      C1347   1.403       .  A
C1346      H1355   1.084       .  S
C1347      C1348   1.414       .  A
C1347      S1351   1.801       .  S
C1348      C1349   1.405       .  A
C1349      C1350   1.409       .  A
C1349      H1356   1.083       .  S
C1350      S1352   1.807       .  S
S1351      H1354   1.405       .  S
S1352      H1353   1.407       .  S
C1357      C1358   1.405       .  A
C1357      C1362   1.414       .  A
C1358      C1359   1.396       .  A
C1358      H1367   1.084       .  S
C1359      C1360   1.410       .  A
C1359      S1363   1.805       .  S
C1360      C1361   1.406       .  A
C1361      C1362   1.408       .  A
C1361      H1368   1.084       .  S
C1362      S1364   1.800       .  S
S1363      H1366   1.407       .  S
S1364      H1365   1.406       .  S
C1369      C1370   1.403       .  A
C1369      C1374   1.412       .  A
C1370      C1371   1.398       .  A
C1370      H1379   1.083       .  S
C1371      C1372   1.407       .  A
C1371      S1375   1.807       .  S
C1372      C1373   1.402       .  A
C1373      C1374   1.402       .  A
C1373      H1380   1.084       .  S
C1374      S1376   1.796       .  S
S1375      H1378   1.407       .  S
S1376      H1377   1.404       .  S
C1381      C1382   1.407       .  A
C1381      C1386   1.424       .  A
C1382      C1383   1.401       .  A
C1382      H1391   1.083       .  S
C1383      C1384   1.415       .  A
C1383      S1387   1.803       .  S
C1384      C1385   1.402       .  A
C1385      C1386   1.398       .  A
C1385      H1392   1.082       .  S
C1386      S1388   1.812       .  S
S1387      H1390   1.408       .  S
S1388      H1389   1.407       .  S
C1393      C1394   1.406       .  A
C1393      C1398   1.415       .  A
C1394      C1395   1.405       .  A
C1394      H1403   1.083       .  S
C1395      C1396   1.419       .  A
C1395      S1399   1.800       .  S
C1396      C1397   1.406       .  A
C1397      C1398   1.398       .  A
C1397      H1404   1.084       .  S
C1398      S1400   1.805       .  S
S1399      H1402   1.401       .  S
S1400      H1401   1.408       .  S
C1405      C1406   1.402       .  A
C1405      C1410   1.414       .  A
C1406      C1407   1.397       .  A
C1406      H1415   1.083       .  S
C1407      C1408   1.423       .  A
C1407      S1411   1.813       .  S
C1408      C1409   1.406       .  A
C1409      C1410   1.400       .  A
C1409      H1416   1.084       .  S
C1410      S1412   1.803       .  S
S1411      H1414   1.407       .  S
S1412      H1413   1.408       .  S
C1417      C1418   1.407       .  A
C1417      C1422   1.419       .  A
C1418      C1419   1.394       .  A
C1418      H1427   1.084       .  S
C1419      C1420   1.415       .  A
C1419      S1423   1.804       .  S
C1420      C1421   1.408       .  A
C1421      C1422   1.413       .  A
C1421      H1428   1.083       .  S
C1422      S1424   1.808       .  S
S1423      H1426   1.408       .  S
S1424      H1425   1.407       .  S
C1429      C1430   1.400       .  A
C1429      C1434   1.413       .  A
C1430      C1431   1.395       .  A
C1430      H1439   1.084       .  S
C1431      C1432   1.414       .  A
C1431      S1435   1.807       .  S
C1432      C1433   1.406       .  A
C1433      C1434   1.407       .  A
C1433      H1440   1.084       .  S
C1434      S1436   1.799       .  S
S1435      H1438   1.407       .  S
S1436      H1437   1.406       .  S
C1441      C1442   1.411       .  A
C1441      C1446   1.421       .  A
C1442      C1443   1.400       .  A
C1442      H1451   1.083       .  S
C1443      C1444   1.406       .  A
C1443      S1447   1.802       .  S
C1444      C1445   1.401       .  A
C1445      C1446   1.400       .  A
C1445      H1452   1.083       .  S
C1446      S1448   1.808       .  S
S1447      H1450   1.406       .  S
S1448      H1449   1.407       .  S
C1453      C1454   1.402       .  A
C1453      C1458   1.417       .  A
C1454      C1455   1.406       .  A
C1454      H1463   1.084       .  S
C1455      C1456   1.417       .  A
C1455      S1459   1.804       .  S
C1456      C1457   1.401       .  A
C1457      C1458   1.404       .  A
C1457      H1464   1.084       .  S
C1458      S1460   1.804       .  S
S1459      H1462   1.406       .  S
S1460      H1461   1.407       .  S
C1465      C1466   1.402       .  A
C1465      C1470   1.419       .  A
C1466      C1467   1.401       .  A
C1466      H1475   1.084       .  S
C1467      C1468   1.415       .  A
C1467      S1471   1.805       .  S
C1468      C1469   1.404       .  A
C1469      C1470   1.409       .  A
C1469      H1476   1.084       .  S
C1470      S1472   1.802       .  S
S1471      H1474   1.407       .  S
S1472      H1473   1.405       .  S
C1477      C1478   1.408       .  A
C1477      C1482   1.419       .  A
C1478      C1479   1.407   1_655  A
C1478      H1487   1.082       .  S
C1479      C1480   1.417       .  A
C1479      S1483   1.803       .  S
C1480      C1481   1.404       .  A
C1481      C1482   1.399   1_455  A
C1481      H1488   1.084       .  S
C1482      S1484   1.805       .  S
S1483      H1486   1.408       .  S
S1484      H1485   1.402       .  S
C1489      C1490   1.401       .  A
C1489      C1494   1.408       .  A
C1490      C1491   1.399       .  A
C1490      H1499   1.083       .  S
C1491      C1492   1.422       .  A
C1491      S1495   1.812       .  S
C1492      C1493   1.413       .  A
C1493      C1494   1.404       .  A
C1493      H1500   1.083       .  S
C1494      S1496   1.802       .  S
S1495      H1498   1.407       .  S
S1496      H1497   1.406       .  S
C1501      C1502   1.401       .  A
C1501      C1506   1.414       .  A
C1502      C1503   1.402       .  A
C1502      H1511   1.084       .  S
C1503      C1504   1.415       .  A
C1503      S1507   1.798       .  S
C1504      C1505   1.404       .  A
C1505      C1506   1.404       .  A
C1505      H1512   1.084       .  S
C1506      S1508   1.803       .  S
S1507      H1510   1.406       .  S
S1508      H1509   1.405       .  S
C1513      C1514   1.405       .  A
C1513      C1518   1.415       .  A
C1514      C1515   1.413       .  A
C1514      H1523   1.083       .  S
C1515      C1516   1.415       .  A
C1515      S1519   1.806       .  S
C1516      C1517   1.401       .  A
C1517      C1518   1.401       .  A
C1517      H1524   1.084       .  S
C1518      S1520   1.805       .  S
S1519      H1522   1.407       .  S
S1520      H1521   1.403       .  S
C1525      C1526   1.408       .  A
C1525      C1530   1.417       .  A
C1526      C1527   1.403   1_655  A
C1526      H1535   1.084       .  S
C1527      C1528   1.411       .  A
C1527      S1531   1.802       .  S
C1528      C1529   1.400       .  A
C1529      C1530   1.398   1_455  A
C1529      H1536   1.085       .  S
C1530      S1532   1.804       .  S
S1531      H1534   1.406       .  S
S1532      H1533   1.407       .  S
C1537      C1538   1.399       .  A
C1537      C1542   1.413       .  A
C1538      C1539   1.393       .  A
C1538      H1547   1.084       .  S
C1539      C1540   1.414       .  A
C1539      S1543   1.805       .  S
C1540      C1541   1.406       .  A
C1541      C1542   1.406       .  A
C1541      H1548   1.083       .  S
C1542      S1544   1.799       .  S
S1543      H1546   1.407       .  S
S1544      H1545   1.406       .  S
C1549      C1550   1.405       .  A
C1549      C1554   1.417       .  A
C1550      C1551   1.402       .  A
C1550      H1559   1.084       .  S
C1551      C1552   1.413       .  A
C1551      S1555   1.802       .  S
C1552      C1553   1.402       .  A
C1553      C1554   1.389       .  A
C1553      H1560   1.085       .  S
C1554      S1556   1.806       .  S
S1555      H1558   1.407       .  S
S1556      H1557   1.408       .  S
C1561      C1562   1.400       .  A
C1561      C1566   1.413       .  A
C1562      C1563   1.404       .  A
C1562      H1571   1.084       .  S
C1563      C1564   1.414       .  A
C1563      S1567   1.795       .  S
C1564      C1565   1.403       .  A
C1565      C1566   1.406       .  A
C1565      H1572   1.083       .  S
C1566      S1568   1.806       .  S
S1567      H1570   1.406       .  S
S1568      H1569   1.407       .  S
C1573      C1574   1.401       .  A
C1573      C1578   1.416       .  A
C1574      C1575   1.404       .  A
C1574      H1583   1.084       .  S
C1575      C1576   1.418       .  A
C1575      S1579   1.805       .  S
C1576      C1577   1.401       .  A
C1577      C1578   1.404       .  A
C1577      H1584   1.084       .  S
C1578      S1580   1.804       .  S
S1579      H1582   1.406       .  S
S1580      H1581   1.407       .  S
C1585      C1586   1.404       .  A
C1585      C1590   1.419       .  A
C1586      C1587   1.398       .  A
C1586      H1595   1.084       .  S
C1587      C1588   1.421       .  A
C1587      S1591   1.804       .  S
C1588      C1589   1.407       .  A
C1589      C1590   1.406       .  A
C1589      H1596   1.084       .  S
C1590      S1592   1.802       .  S
S1591      H1594   1.400       .  S
S1592      H1593   1.408       .  S
C1597      C1598   1.406       .  A
C1597      C1602   1.419       .  A
C1598      C1599   1.398       .  A
C1598      H1607   1.081       .  S
C1599      C1600   1.420       .  A
C1599      S1603   1.805       .  S
C1600      C1601   1.409       .  A
C1601      C1602   1.407       .  A
C1601      H1608   1.083       .  S
C1602      S1604   1.800       .  S
S1603      H1606   1.402       .  S
S1604      H1605   1.408       .  S
C1609      C1610   1.405       .  A
C1609      C1614   1.416       .  A
C1610      C1611   1.402       .  A
C1610      H1619   1.082       .  S
C1611      C1612   1.416       .  A
C1611      S1615   1.810       .  S
C1612      C1613   1.406       .  A
C1613      C1614   1.404       .  A
C1613      H1620   1.083       .  S
C1614      S1616   1.802       .  S
S1615      H1618   1.406       .  S
S1616      H1617   1.407       .  S
C1621      C1622   1.404       .  A
C1621      C1626   1.416       .  A
C1622      C1623   1.405       .  A
C1622      H1631   1.084       .  S
C1623      C1624   1.418       .  A
C1623      S1627   1.801       .  S
C1624      C1625   1.404       .  A
C1625      C1626   1.397       .  A
C1625      H1632   1.082       .  S
C1626      S1628   1.810       .  S
S1627      H1630   1.408       .  S
S1628      H1629   1.407       .  S
C1633      C1634   1.410       .  A
C1633      C1638   1.420       .  A
C1634      C1635   1.402   1_565  A
C1634      H1643   1.083       .  S
C1635      C1636   1.410       .  A
C1635      S1639   1.803       .  S
C1636      C1637   1.402       .  A
C1637      C1638   1.406   1_545  A
C1637      H1644   1.084       .  S
C1638      S1640   1.801       .  S
S1639      H1642   1.407       .  S
S1640      H1641   1.407       .  S
C1645      C1646   1.404       .  A
C1645      C1650   1.413       .  A
C1646      C1647   1.402       .  A
C1646      H1655   1.084       .  S
C1647      C1648   1.411       .  A
C1647      S1651   1.801       .  S
C1648      C1649   1.405       .  A
C1649      C1650   1.404       .  A
C1649      H1656   1.083       .  S
C1650      S1652   1.802       .  S
S1651      H1654   1.407       .  S
S1652      H1653   1.404       .  S
C1657      C1658   1.400       .  A
C1657      C1662   1.415       .  A
C1658      C1659   1.396       .  A
C1658      H1667   1.083       .  S
C1659      C1660   1.414       .  A
C1659      S1663   1.806       .  S
C1660      C1661   1.403       .  A
C1661      C1662   1.406       .  A
C1661      H1668   1.084       .  S
C1662      S1664   1.802       .  S
S1663      H1666   1.405       .  S
S1664      H1665   1.405       .  S
C1669      C1670   1.402       .  A
C1669      C1674   1.413       .  A
C1670      C1671   1.402   1_655  A
C1670      H1679   1.084       .  S
C1671      C1672   1.417       .  A
C1671      S1675   1.804       .  S
C1672      C1673   1.407       .  A
C1673      C1674   1.404   1_455  A
C1673      H1680   1.084       .  S
C1674      S1676   1.804       .  S
S1675      H1678   1.408       .  S
S1676      H1677   1.403       .  S
C1681      C1682   1.407       .  A
C1681      C1686   1.418       .  A
C1682      C1683   1.404   1_545  A
C1682      H1691   1.084       .  S
C1683      C1684   1.419       .  A
C1683      S1687   1.800       .  S
C1684      C1685   1.409       .  A
C1685      C1686   1.402   1_565  A
C1685      H1692   1.084       .  S
C1686      S1688   1.804       .  S
S1687      H1690   1.408       .  S
S1688      H1689   1.408       .  S
C1693      C1694   1.413       .  A
C1693      C1698   1.420       .  A
C1694      C1695   1.408       .  A
C1694      H1703   1.082       .  S
C1695      C1696   1.407       .  A
C1695      S1699   1.805       .  S
C1696      C1697   1.400       .  A
C1697      C1698   1.394       .  A
C1697      H1704   1.085       .  S
C1698      S1700   1.801       .  S
S1699      H1702   1.407       .  S
S1700      H1701   1.404       .  S
C1705      C1706   1.404       .  A
C1705      C1710   1.408       .  A
C1706      C1707   1.406       .  A
C1706      H1715   1.084       .  S
C1707      C1708   1.412       .  A
C1707      S1711   1.798       .  S
C1708      C1709   1.406       .  A
C1709      C1710   1.398       .  A
C1709      H1716   1.084       .  S
C1710      S1712   1.803       .  S
S1711      H1714   1.405       .  S
S1712      H1713   1.407       .  S
C1717      C1718   1.401       .  A
C1717      C1722   1.412       .  A
C1718      C1719   1.403       .  A
C1718      H1727   1.084       .  S
C1719      C1720   1.417       .  A
C1719      S1723   1.803       .  S
C1720      C1721   1.407       .  A
C1721      C1722   1.403       .  A
C1721      H1728   1.084       .  S
C1722      S1724   1.805       .  S
S1723      H1726   1.407       .  S
S1724      H1725   1.405       .  S
C1729      C1730   1.401       .  A
C1729      C1734   1.415       .  A
C1730      C1731   1.403       .  A
C1730      H1739   1.084       .  S
C1731      C1732   1.418       .  A
C1731      S1735   1.801       .  S
C1732      C1733   1.403       .  A
C1733      C1734   1.398       .  A
C1733      H1740   1.082       .  S
C1734      S1736   1.807       .  S
S1735      H1738   1.405       .  S
S1736      H1737   1.407       .  S
C1741      C1742   1.403       .  A
C1741      C1746   1.413       .  A
C1742      C1743   1.407       .  A
C1742      H1751   1.084       .  S
C1743      C1744   1.417       .  A
C1743      S1747   1.802       .  S
C1744      C1745   1.401       .  A
C1745      C1746   1.401       .  A
C1745      H1752   1.084       .  S
C1746      S1748   1.803       .  S
S1747      H1750   1.405       .  S
S1748      H1749   1.406       .  S
C1753      C1754   1.403       .  A
C1753      C1758   1.412       .  A
C1754      C1755   1.409       .  A
C1754      H1763   1.084       .  S
C1755      C1756   1.418       .  A
C1755      S1759   1.807       .  S
C1756      C1757   1.403       .  A
C1757      C1758   1.392       .  A
C1757      H1764   1.083       .  S
C1758      S1760   1.809       .  S
S1759      H1762   1.407       .  S
S1760      H1761   1.407       .  S
C1765      C1766   1.402       .  A
C1765      C1770   1.417       .  A
C1766      C1767   1.393   1_655  A
C1766      H1775   1.084       .  S
C1767      C1768   1.414       .  A
C1767      S1771   1.805       .  S
C1768      C1769   1.405       .  A
C1769      C1770   1.407   1_455  A
C1769      H1776   1.084       .  S
C1770      S1772   1.800       .  S
S1771      H1774   1.406       .  S
S1772      H1773   1.406       .  S
C1777      C1778   1.401       .  A
C1777      C1782   1.409       .  A
C1778      C1779   1.400       .  A
C1778      H1787   1.084       .  S
C1779      C1780   1.423       .  A
C1779      S1783   1.813       .  S
C1780      C1781   1.411       .  A
C1781      C1782   1.404       .  A
C1781      H1788   1.084       .  S
C1782      S1784   1.799       .  S
S1783      H1786   1.407       .  S
S1784      H1785   1.407       .  S
C1789      C1790   1.401       .  A
C1789      C1794   1.412       .  A
C1790      C1791   1.408       .  A
C1790      H1799   1.083       .  S
C1791      C1792   1.421       .  A
C1791      S1795   1.808       .  S
C1792      C1793   1.406       .  A
C1793      C1794   1.398       .  A
C1793      H1800   1.082       .  S
C1794      S1796   1.808       .  S
S1795      H1798   1.407       .  S
S1796      H1797   1.407       .  S
C1801      C1802   1.406       .  A
C1801      C1806   1.413       .  A
C1802      C1803   1.401       .  A
C1802      H1811   1.084       .  S
C1803      C1804   1.409       .  A
C1803      S1807   1.801       .  S
C1804      C1805   1.405       .  A
C1805      C1806   1.405       .  A
C1805      H1812   1.085       .  S
C1806      S1808   1.802       .  S
S1807      H1810   1.406       .  S
S1808      H1809   1.405       .  S
C1813      C1814   1.406       .  A
C1813      C1818   1.413       .  A
C1814      C1815   1.398       .  A
C1814      H1823   1.084       .  S
C1815      C1816   1.410       .  A
C1815      S1819   1.805       .  S
C1816      C1817   1.405       .  A
C1817      C1818   1.406       .  A
C1817      H1824   1.083       .  S
C1818      S1820   1.797       .  S
S1819      H1822   1.407       .  S
S1820      H1821   1.405       .  S
C1825      C1826   1.404       .  A
C1825      C1830   1.417       .  A
C1826      C1827   1.398       .  A
C1826      H1835   1.084       .  S
C1827      C1828   1.422       .  A
C1827      S1831   1.806       .  S
C1828      C1829   1.407       .  A
C1829      C1830   1.406       .  A
C1829      H1836   1.084       .  S
C1830      S1832   1.798       .  S
S1831      H1834   1.398       .  S
S1832      H1833   1.408       .  S
C1837      C1838   1.411       .  A
C1837      C1842   1.418       .  A
C1838      C1839   1.400       .  A
C1838      H1847   1.083       .  S
C1839      C1840   1.408       .  A
C1839      S1843   1.802       .  S
C1840      C1841   1.402       .  A
C1841      C1842   1.402       .  A
C1841      H1848   1.084       .  S
C1842      S1844   1.799       .  S
S1843      H1846   1.405       .  S
S1844      H1845   1.407       .  S
C1849      C1850   1.404       .  A
C1849      C1854   1.420       .  A
C1850      C1851   1.398       .  A
C1850      H1859   1.084       .  S
C1851      C1852   1.421       .  A
C1851      S1855   1.802       .  S
C1852      C1853   1.408       .  A
C1853      C1854   1.409       .  A
C1853      H1860   1.083       .  S
C1854      S1856   1.801       .  S
S1855      H1858   1.405       .  S
S1856      H1857   1.408       .  S
C1861      C1862   1.402       .  A
C1861      C1866   1.409       .  A
C1862      C1863   1.401       .  A
C1862      H1871   1.085       .  S
C1863      C1864   1.417       .  A
C1863      S1867   1.798       .  S
C1864      C1865   1.410       .  A
C1865      C1866   1.399       .  A
C1865      H1872   1.084       .  S
C1866      S1868   1.803       .  S
S1867      H1870   1.407       .  S
S1868      H1869   1.404       .  S
C1873      C1874   1.404       .  A
C1873      C1878   1.422       .  A
C1874      C1875   1.400       .  A
C1874      H1883   1.082       .  S
C1875      C1876   1.417       .  A
C1875      S1879   1.806       .  S
C1876      C1877   1.404       .  A
C1877      C1878   1.409       .  A
C1877      H1884   1.084       .  S
C1878      S1880   1.801       .  S
S1879      H1882   1.407       .  S
S1880      H1881   1.408       .  S
C1885      C1886   1.405       .  A
C1885      C1890   1.419       .  A
C1886      C1887   1.403   1_556  A
C1886      H1895   1.082       .  S
C1887      C1888   1.421       .  A
C1887      S1891   1.812       .  S
C1888      C1889   1.407       .  A
C1889      C1890   1.406   1_554  A
C1889      H1896   1.084       .  S
C1890      S1892   1.802       .  S
S1891      H1894   1.407       .  S
S1892      H1893   1.408       .  S
C1897      C1898   1.403       .  A
C1897      C1902   1.409       .  A
C1898      C1899   1.405       .  A
C1898      H1907   1.082       .  S
C1899      C1900   1.413       .  A
C1899      S1903   1.792       .  S
C1900      C1901   1.405       .  A
C1901      C1902   1.397       .  A
C1901      H1908   1.084       .  S
C1902      S1904   1.797       .  S
S1903      H1906   1.405       .  S
S1904      H1905   1.407       .  S
C1909      C1910   1.406       .  A
C1909      C1914   1.409       .  A
C1910      C1911   1.415       .  A
C1910      H1919   1.082       .  S
C1911      C1912   1.412       .  A
C1911      S1915   1.799       .  S
C1912      C1913   1.401       .  A
C1913      C1914   1.394       .  A
C1913      H1920   1.084       .  S
C1914      S1916   1.792       .  S
S1915      H1918   1.407       .  S
S1916      H1917   1.407       .  S
C1921      C1922   1.407       .  A
C1921      C1926   1.419       .  A
C1922      C1923   1.406   1_556  A
C1922      H1931   1.083       .  S
C1923      C1924   1.420       .  A
C1923      S1927   1.801       .  S
C1924      C1925   1.408       .  A
C1925      C1926   1.403   1_554  A
C1925      H1932   1.082       .  S
C1926      S1928   1.812       .  S
S1927      H1930   1.403       .  S
S1928      H1929   1.407       .  S
C1933      C1934   1.404       .  A
C1933      C1938   1.414       .  A
C1934      C1935   1.395       .  A
C1934      H1943   1.085       .  S
C1935      C1936   1.409       .  A
C1935      S1939   1.795       .  S
C1936      C1937   1.404       .  A
C1937      C1938   1.407       .  A
C1937      H1944   1.084       .  S
C1938      S1940   1.792       .  S
S1939      H1942   1.407       .  S
S1940      H1941   1.405       .  S
C1945      C1946   1.405       .  A
C1945      C1950   1.409       .  A
C1946      C1947   1.409       .  A
C1946      H1955   1.084       .  S
C1947      C1948   1.414       .  A
C1947      S1951   1.791       .  S
C1948      C1949   1.404       .  A
C1949      C1950   1.397       .  A
C1949      H1956   1.084       .  S
C1950      S1952   1.794       .  S
S1951      H1954   1.405       .  S
S1952      H1953   1.407       .  S
C1957      C1958   1.412       .  A
C1957      C1962   1.420       .  A
C1958      C1959   1.401       .  A
C1958      H1967   1.083       .  S
C1959      C1960   1.407       .  A
C1959      S1963   1.801       .  S
C1960      C1961   1.402       .  A
C1961      C1962   1.404       .  A
C1961      H1968   1.083       .  S
C1962      S1964   1.810       .  S
S1963      H1966   1.405       .  S
S1964      H1965   1.406       .  S
C1969      C1970   1.402       .  A
C1969      C1974   1.412       .  A
C1970      C1971   1.394       .  A
C1970      H1979   1.087       .  S
C1971      C1972   1.408       .  A
C1971      S1975   1.796       .  S
C1972      C1973   1.404       .  A
C1973      C1974   1.412       .  A
C1973      H1980   1.086       .  S
C1974      S1976   1.797       .  S
S1975      H1978   1.408       .  S
S1976      H1977   1.407       .  S
C1981      C1982   1.413       .  A
C1981      C1986   1.418       .  A
C1982      C1983   1.400       .  A
C1982      H1991   1.083       .  S
C1983      C1984   1.407       .  A
C1983      S1987   1.800       .  S
C1984      C1985   1.403       .  A
C1985      C1986   1.399       .  A
C1985      H1992   1.084       .  S
C1986      S1988   1.801       .  S
S1987      H1990   1.406       .  S
S1988      H1989   1.406       .  S
C1993      C1994   1.403       .  A
C1993      C1998   1.412       .  A
C1994      C1995   1.396       .  A
C1994      H2003   1.085       .  S
C1995      C1996   1.409       .  A
C1995      S1999   1.794       .  S
C1996      C1997   1.404       .  A
C1997      C1998   1.408       .  A
C1997      H2004   1.083       .  S
C1998      S2000   1.794       .  S
S1999      H2002   1.407       .  S
S2000      H2001   1.405       .  S
C2005      C2006   1.406       .  A
C2005      C2010   1.417       .  A
C2006      C2007   1.412       .  A
C2006      H2015   1.082       .  S
C2007      C2008   1.417       .  A
C2007      S2011   1.806       .  S
C2008      C2009   1.401       .  A
C2009      C2010   1.390       .  A
C2009      H2016   1.084       .  S
C2010      S2012   1.799       .  S
S2011      H2014   1.407       .  S
S2012      H2013   1.400       .  S
C2017      C2018   1.405       .  A
C2017      C2022   1.416       .  A
C2018      C2019   1.396       .  A
C2018      H2027   1.084       .  S
C2019      C2020   1.413       .  A
C2019      S2023   1.804       .  S
C2020      C2021   1.407       .  A
C2021      C2022   1.407       .  A
C2021      H2028   1.083       .  S
C2022      S2024   1.808       .  S
S2023      H2026   1.408       .  S
S2024      H2025   1.407       .  S
C2029      C2030   1.410       .  A
C2029      C2034   1.421       .  A
C2030      C2031   1.404       .  A
C2030      H2039   1.083       .  S
C2031      C2032   1.413       .  A
C2031      S2035   1.806       .  S
C2032      C2033   1.401       .  A
C2033      C2034   1.402       .  A
C2033      H2040   1.083       .  S
C2034      S2036   1.812       .  S
S2035      H2038   1.399       .  S
S2036      H2037   1.407       .  S
C2041      C2042   1.401       .  A
C2041      C2046   1.415       .  A
C2042      C2043   1.397       .  A
C2042      H2051   1.084       .  S
C2043      C2044   1.414       .  A
C2043      S2047   1.799       .  S
C2044      C2045   1.407       .  A
C2045      C2046   1.409       .  A
C2045      H2052   1.083       .  S
C2046      S2048   1.802       .  S
S2047      H2050   1.406       .  S
S2048      H2049   1.407       .  S
C2053      C2054   1.401       .  A
C2053      C2058   1.407       .  A
C2054      C2055   1.401       .  A
C2054      H2063   1.083       .  S
C2055      C2056   1.421       .  A
C2055      S2059   1.810       .  S
C2056      C2057   1.413       .  A
C2057      C2058   1.401       .  A
C2057      H2064   1.083       .  S
C2058      S2060   1.802       .  S
S2059      H2062   1.407       .  S
S2060      H2061   1.404       .  S
C2065      C2066   1.408       .  A
C2065      C2070   1.421       .  A
C2066      C2067   1.410       .  A
C2066      H2075   1.083       .  S
C2067      C2068   1.421       .  A
C2067      S2071   1.800       .  S
C2068      C2069   1.405       .  A
C2069      C2070   1.401       .  A
C2069      H2076   1.084       .  S
C2070      S2072   1.800       .  S
S2071      H2074   1.406       .  S
S2072      H2073   1.404       .  S
C2077      C2078   1.402       .  A
C2077      C2082   1.407       .  A
C2078      C2079   1.401       .  A
C2078      H2087   1.083       .  S
C2079      C2080   1.422       .  A
C2079      S2083   1.809       .  S
C2080      C2081   1.412       .  A
C2081      C2082   1.402       .  A
C2081      H2088   1.083       .  S
C2082      S2084   1.800       .  S
S2083      H2086   1.408       .  S
S2084      H2085   1.406       .  S
C2089      C2090   1.399       .  A
C2089      C2094   1.408       .  A
C2090      C2091   1.397       .  A
C2090      H2099   1.085       .  S
C2091      C2092   1.417       .  A
C2091      S2095   1.799       .  S
C2092      C2093   1.409       .  A
C2093      C2094   1.399       .  A
C2093      H2100   1.083       .  S
C2094      S2096   1.801       .  S
S2095      H2098   1.407       .  S
S2096      H2097   1.405       .  S
C2101      C2102   1.406       .  A
C2101      C2106   1.414       .  A
C2102      C2103   1.401   1_455  A
C2102      H2111   1.084       .  S
C2103      C2104   1.414       .  A
C2103      S2107   1.805       .  S
C2104      C2105   1.403       .  A
C2105      C2106   1.401   1_655  A
C2105      H2112   1.084       .  S
C2106      S2108   1.799       .  S
S2107      H2110   1.407       .  S
S2108      H2109   1.407       .  S
C2113      C2114   1.403       .  A
C2113      C2118   1.411       .  A
C2114      C2115   1.403       .  A
C2114      H2123   1.084       .  S
C2115      C2116   1.413       .  A
C2115      S2119   1.804       .  S
C2116      C2117   1.405       .  A
C2117      C2118   1.408       .  A
C2117      H2124   1.083       .  S
C2118      S2120   1.807       .  S
S2119      H2122   1.405       .  S
S2120      H2121   1.407       .  S
C2125      C2126   1.401       .  A
C2125      C2130   1.416       .  A
C2126      C2127   1.401       .  A
C2126      H2135   1.084       .  S
C2127      C2128   1.414       .  A
C2127      S2131   1.804       .  S
C2128      C2129   1.399       .  A
C2129      C2130   1.399       .  A
C2129      H2136   1.082       .  S
C2130      S2132   1.806       .  S
S2131      H2134   1.407       .  S
S2132      H2133   1.407       .  S
C2137      C2138   1.406       .  A
C2137      C2142   1.416       .  A
C2138      C2139   1.404   1_556  A
C2138      H2147   1.084       .  S
C2139      C2140   1.415       .  A
C2139      S2143   1.801       .  S
C2140      C2141   1.403       .  A
C2141      C2142   1.393   1_554  A
C2141      H2148   1.082       .  S
C2142      S2144   1.813       .  S
S2143      H2146   1.407       .  S
S2144      H2145   1.407       .  S
C2149      C2150   1.408       .  A
C2149      C2154   1.417       .  A
C2150      C2151   1.408   1_455  A
C2150      H2159   1.083       .  S
C2151      C2152   1.416       .  A
C2151      S2155   1.802       .  S
C2152      C2153   1.405       .  A
C2153      C2154   1.401   1_655  A
C2153      H2160   1.084       .  S
C2154      S2156   1.805       .  S
S2155      H2158   1.407       .  S
S2156      H2157   1.407       .  S
C2161      C2162   1.399       .  A
C2161      C2166   1.416       .  A
C2162      C2163   1.401       .  A
C2162      H2171   1.084       .  S
C2163      C2164   1.417       .  A
C2163      S2167   1.805       .  S
C2164      C2165   1.400       .  A
C2165      C2166   1.401       .  A
C2165      H2172   1.084       .  S
C2166      S2168   1.804       .  S
S2167      H2170   1.404       .  S
S2168      H2169   1.406       .  S
C2173      C2174   1.403       .  A
C2173      C2178   1.411       .  A
C2174      C2175   1.405       .  A
C2174      H2183   1.084       .  S
C2175      C2176   1.412       .  A
C2175      S2179   1.798       .  S
C2176      C2177   1.404       .  A
C2177      C2178   1.403       .  A
C2177      H2184   1.084       .  S
C2178      S2180   1.804       .  S
S2179      H2182   1.406       .  S
S2180      H2181   1.407       .  S
C2185      C2186   1.400       .  A
C2185      C2190   1.405       .  A
C2186      C2187   1.398       .  A
C2186      H2195   1.083       .  S
C2187      C2188   1.420       .  A
C2187      S2191   1.810       .  S
C2188      C2189   1.410       .  A
C2189      C2190   1.396       .  A
C2189      H2196   1.083       .  S
C2190      S2192   1.800       .  S
S2191      H2194   1.408       .  S
S2192      H2193   1.406       .  S
C2197      C2198   1.406       .  A
C2197      C2202   1.422       .  A
C2198      C2199   1.403   1_556  A
C2198      H2207   1.084       .  S
C2199      C2200   1.418       .  A
C2199      S2203   1.805       .  S
C2200      C2201   1.407       .  A
C2201      C2202   1.412   1_554  A
C2201      H2208   1.084       .  S
C2202      S2204   1.802       .  S
S2203      H2206   1.407       .  S
S2204      H2205   1.407       .  S
C2209      C2210   1.402       .  A
C2209      C2214   1.408       .  A
C2210      C2211   1.405       .  A
C2210      H2219   1.083       .  S
C2211      C2212   1.420       .  A
C2211      S2215   1.808       .  S
C2212      C2213   1.412       .  A
C2213      C2214   1.402       .  A
C2213      H2220   1.083       .  S
C2214      S2216   1.802       .  S
S2215      H2218   1.406       .  S
S2216      H2217   1.404       .  S
C2221      C2222   1.402       .  A
C2221      C2226   1.412       .  A
C2222      C2223   1.400       .  A
C2222      H2231   1.083       .  S
C2223      C2224   1.424       .  A
C2223      S2227   1.812       .  S
C2224      C2225   1.411       .  A
C2225      C2226   1.409       .  A
C2225      H2232   1.083       .  S
C2226      S2228   1.798       .  S
S2227      H2230   1.407       .  S
S2228      H2229   1.407       .  S
C2233      C2234   1.406       .  A
C2233      C2238   1.410       .  A
C2234      C2235   1.401       .  A
C2234      H2243   1.084       .  S
C2235      C2236   1.410       .  A
C2235      S2239   1.797       .  S
C2236      C2237   1.404       .  A
C2237      C2238   1.397       .  A
C2237      H2244   1.084       .  S
C2238      S2240   1.795       .  S
S2239      H2242   1.406       .  S
S2240      H2241   1.405       .  S
C2245      C2246   1.403       .  A
C2245      C2250   1.412       .  A
C2246      C2247   1.401       .  A
C2246      H2255   1.084       .  S
C2247      C2248   1.413       .  A
C2247      S2251   1.803       .  S
C2248      C2249   1.405       .  A
C2249      C2250   1.407       .  A
C2249      H2256   1.083       .  S
C2250      S2252   1.801       .  S
S2251      H2254   1.407       .  S
S2252      H2253   1.406       .  S
C2257      C2258   1.405       .  A
C2257      C2262   1.416       .  A
C2258      C2259   1.405       .  A
C2258      H2267   1.080       .  S
C2259      C2260   1.407       .  A
C2259      S2263   1.806       .  S
C2260      C2261   1.398       .  A
C2261      C2262   1.397       .  A
C2261      H2268   1.084       .  S
C2262      S2264   1.806       .  S
S2263      H2266   1.407       .  S
S2264      H2265   1.406       .  S
C2269      C2270   1.409       .  A
C2269      C2274   1.414       .  A
C2270      C2271   1.411       .  A
C2270      H2279   1.083       .  S
C2271      C2272   1.417       .  A
C2271      S2275   1.798       .  S
C2272      C2273   1.403       .  A
C2273      C2274   1.395       .  A
C2273      H2280   1.084       .  S
C2274      S2276   1.797       .  S
S2275      H2278   1.407       .  S
S2276      H2277   1.407       .  S
C2281      C2282   1.406       .  A
C2281      C2286   1.419       .  A
C2282      C2283   1.412       .  A
C2282      H2291   1.082       .  S
C2283      C2284   1.420       .  A
C2283      S2287   1.808       .  S
C2284      C2285   1.404       .  A
C2285      C2286   1.396       .  A
C2285      H2292   1.084       .  S
C2286      S2288   1.805       .  S
S2287      H2290   1.406       .  S
S2288      H2289   1.408       .  S
C2293      C2294   1.407       .  A
C2293      C2298   1.418       .  A
C2294      C2295   1.399       .  A
C2294      H2303   1.084       .  S
C2295      C2296   1.416       .  A
C2295      S2299   1.802       .  S
C2296      C2297   1.404       .  A
C2297      C2298   1.397       .  A
C2297      H2304   1.082       .  S
C2298      S2300   1.808       .  S
S2299      H2302   1.408       .  S
S2300      H2301   1.407       .  S
C2305      C2306   1.398       .  A
C2305      C2310   1.414       .  A
C2306      C2307   1.389       .  A
C2306      H2315   1.085       .  S
C2307      C2308   1.415       .  A
C2307      S2311   1.805       .  S
C2308      C2309   1.405       .  A
C2309      C2310   1.406       .  A
C2309      H2316   1.083       .  S
C2310      S2312   1.801       .  S
S2311      H2314   1.406       .  S
S2312      H2313   1.406       .  S
C2317      C2318   1.398       .  A
C2317      C2322   1.405       .  A
C2318      C2319   1.395       .  A
C2318      H2327   1.083       .  S
C2319      C2320   1.419       .  A
C2319      S2323   1.809       .  S
C2320      C2321   1.412       .  A
C2321      C2322   1.406       .  A
C2321      H2328   1.082       .  S
C2322      S2324   1.805       .  S
S2323      H2326   1.408       .  S
S2324      H2325   1.407       .  S
C2329      C2330   1.399       .  A
C2329      C2334   1.413       .  A
C2330      C2331   1.390       .  A
C2330      H2339   1.085       .  S
C2331      C2332   1.409       .  A
C2331      S2335   1.797       .  S
C2332      C2333   1.404       .  A
C2333      C2334   1.407       .  A
C2333      H2340   1.083       .  S
C2334      S2336   1.798       .  S
S2335      H2338   1.406       .  S
S2336      H2337   1.404       .  S
C2341      C2342   1.404       .  A
C2341      C2346   1.418       .  A
C2342      C2343   1.398   1_556  A
C2342      H2351   1.084       .  S
C2343      C2344   1.417       .  A
C2343      S2347   1.800       .  S
C2344      C2345   1.409       .  A
C2345      C2346   1.410   1_554  A
C2345      H2352   1.083       .  S
C2346      S2348   1.801       .  S
S2347      H2350   1.405       .  S
S2348      H2349   1.407       .  S
C2353      C2354   1.406       .  A
C2353      C2358   1.412       .  A
C2354      C2355   1.394       .  A
C2354      H2363   1.084       .  S
C2355      C2356   1.407       .  A
C2355      S2359   1.804       .  S
C2356      C2357   1.406       .  A
C2357      C2358   1.411       .  A
C2357      H2364   1.083       .  S
C2358      S2360   1.806       .  S
S2359      H2362   1.406       .  S
S2360      H2361   1.407       .  S
C2365      C2366   1.402       .  A
C2365      C2370   1.421       .  A
C2366      C2367   1.399       .  A
C2366      H2375   1.084       .  S
C2367      C2368   1.414       .  A
C2367      S2371   1.805       .  S
C2368      C2369   1.402       .  A
C2369      C2370   1.408       .  A
C2369      H2376   1.083       .  S
C2370      S2372   1.808       .  S
S2371      H2374   1.407       .  S
S2372      H2373   1.398       .  S
C2377      C2378   1.402       .  A
C2377      C2382   1.408       .  A
C2378      C2379   1.404   1_556  A
C2378      H2387   1.084       .  S
C2379      C2380   1.418       .  A
C2379      S2383   1.800       .  S
C2380      C2381   1.405       .  A
C2381      C2382   1.392   1_554  A
C2381      H2388   1.083       .  S
C2382      S2384   1.802       .  S
S2383      H2386   1.407       .  S
S2384      H2385   1.403       .  S
C2389      C2390   1.406       .  A
C2389      C2394   1.414       .  A
C2390      C2391   1.402   1_565  A
C2390      H2399   1.084       .  S
C2391      C2392   1.412       .  A
C2391      S2395   1.805       .  S
C2392      C2393   1.402       .  A
C2393      C2394   1.400   1_545  A
C2393      H2400   1.085       .  S
C2394      S2396   1.804       .  S
S2395      H2398   1.404       .  S
S2396      H2397   1.407       .  S
C2401      C2402   1.407       .  A
C2401      C2406   1.414       .  A
C2402      C2403   1.398       .  A
C2402      H2411   1.083       .  S
C2403      C2404   1.408       .  A
C2403      S2407   1.804       .  S
C2404      C2405   1.402       .  A
C2405      C2406   1.401       .  A
C2405      H2412   1.083       .  S
C2406      S2408   1.798       .  S
S2407      H2410   1.405       .  S
S2408      H2409   1.407       .  S
C2413      C2414   1.401       .  A
C2413      C2418   1.412       .  A
C2414      C2415   1.396       .  A
C2414      H2423   1.085       .  S
C2415      C2416   1.416       .  A
C2415      S2419   1.805       .  S
C2416      C2417   1.407       .  A
C2417      C2418   1.409       .  A
C2417      H2424   1.084       .  S
C2418      S2420   1.798       .  S
S2419      H2422   1.408       .  S
S2420      H2421   1.405       .  S
C2425      C2426   1.400       .  A
C2425      C2430   1.414       .  A
C2426      C2427   1.400       .  A
C2426      H2435   1.081       .  S
C2427      C2428   1.414       .  A
C2427      S2431   1.804       .  S
C2428      C2429   1.400       .  A
C2429      C2430   1.400       .  A
C2429      H2436   1.084       .  S
C2430      S2432   1.798       .  S
S2431      H2434   1.407       .  S
S2432      H2433   1.407       .  S
C2437      C2438   1.407       .  A
C2437      C2442   1.421   1_545  A
C2438      C2439   1.404   1_545  A
C2438      H2447   1.083       .  S
C2439      C2440   1.416       .  A
C2439      S2443   1.806       .  S
C2440      C2441   1.400       .  A
C2441      C2442   1.398       .  A
C2441      H2448   1.084       .  S
C2442      S2444   1.805   1_565  S
S2443      H2446   1.399       .  S
S2444      H2445   1.408       .  S
C2449      C2450   1.407       .  A
C2449      C2454   1.416       .  A
C2450      C2451   1.401       .  A
C2450      H2459   1.084       .  S
C2451      C2452   1.412       .  A
C2451      S2455   1.804       .  S
C2452      C2453   1.407       .  A
C2453      C2454   1.412       .  A
C2453      H2460   1.084       .  S
C2454      S2456   1.797       .  S
S2455      H2458   1.407       .  S
S2456      H2457   1.406       .  S
C2461      C2462   1.404       .  A
C2461      C2466   1.412       .  A
C2462      C2463   1.402       .  A
C2462      H2471   1.084       .  S
C2463      C2464   1.412       .  A
C2463      S2467   1.801       .  S
C2464      C2465   1.405       .  A
C2465      C2466   1.407       .  A
C2465      H2472   1.083       .  S
C2466      S2468   1.801       .  S
S2467      H2470   1.407       .  S
S2468      H2469   1.406       .  S
C2473      C2474   1.398       .  A
C2473      C2478   1.406       .  A
C2474      C2475   1.396       .  A
C2474      H2483   1.083       .  S
C2475      C2476   1.424       .  A
C2475      S2479   1.813       .  S
C2476      C2477   1.411       .  A
C2477      C2478   1.400       .  A
C2477      H2484   1.083       .  S
C2478      S2480   1.800       .  S
S2479      H2482   1.406       .  S
S2480      H2481   1.405       .  S
C2485      C2486   1.412       .  A
C2485      C2490   1.419       .  A
C2486      C2487   1.407       .  A
C2486      H2495   1.084       .  S
C2487      C2488   1.410       .  A
C2487      S2491   1.799       .  S
C2488      C2489   1.401       .  A
C2489      C2490   1.391       .  A
C2489      H2496   1.085       .  S
C2490      S2492   1.804       .  S
S2491      H2494   1.406       .  S
S2492      H2493   1.408       .  S
C2497      C2498   1.403       .  A
C2497      C2502   1.414       .  A
C2498      C2499   1.401       .  A
C2498      H2507   1.084       .  S
C2499      C2500   1.412       .  A
C2499      S2503   1.801       .  S
C2500      C2501   1.401       .  A
C2501      C2502   1.400       .  A
C2501      H2508   1.084       .  S
C2502      S2504   1.801       .  S
S2503      H2506   1.406       .  S
S2504      H2505   1.405       .  S
C2509      C2510   1.406       .  A
C2509      C2514   1.414       .  A
C2510      C2511   1.405       .  A
C2510      H2519   1.083       .  S
C2511      C2512   1.417       .  A
C2511      S2515   1.801       .  S
C2512      C2513   1.405       .  A
C2513      C2514   1.401       .  A
C2513      H2520   1.082       .  S
C2514      S2516   1.810       .  S
S2515      H2518   1.407       .  S
S2516      H2517   1.406       .  S
C2521      C2522   1.405       .  A
C2521      C2526   1.417       .  A
C2522      C2523   1.401       .  A
C2522      H2531   1.084       .  S
C2523      C2524   1.415       .  A
C2523      S2527   1.805       .  S
C2524      C2525   1.405       .  A
C2525      C2526   1.404       .  A
C2525      H2532   1.084       .  S
C2526      S2528   1.803       .  S
S2527      H2530   1.406       .  S
S2528      H2529   1.407       .  S
C2533      C2534   1.408       .  A
C2533      C2538   1.418       .  A
C2534      C2535   1.405       .  A
C2534      H2543   1.082       .  S
C2535      C2536   1.418       .  A
C2535      S2539   1.811       .  S
C2536      C2537   1.408       .  A
C2537      C2538   1.407       .  A
C2537      H2544   1.084       .  S
C2538      S2540   1.800       .  S
S2539      H2542   1.406       .  S
S2540      H2541   1.408       .  S
C2545      C2546   1.404       .  A
C2545      C2550   1.410       .  A
C2546      C2547   1.404       .  A
C2546      H2555   1.084       .  S
C2547      C2548   1.413       .  A
C2547      S2551   1.800       .  S
C2548      C2549   1.402       .  A
C2549      C2550   1.396       .  A
C2549      H2556   1.084       .  S
C2550      S2552   1.800       .  S
S2551      H2554   1.405       .  S
S2552      H2553   1.407       .  S
C2557      C2558   1.408       .  A
C2557      C2562   1.414       .  A
C2558      C2559   1.412       .  A
C2558      H2567   1.083       .  S
C2559      C2560   1.418       .  A
C2559      S2563   1.802       .  S
C2560      C2561   1.404       .  A
C2561      C2562   1.400       .  A
C2561      H2568   1.084       .  S
C2562      S2564   1.798       .  S
S2563      H2566   1.407       .  S
S2564      H2565   1.406       .  S
C2569      C2570   1.404       .  A
C2569      C2574   1.415       .  A
C2570      C2571   1.401       .  A
C2570      H2579   1.084       .  S
C2571      C2572   1.411       .  A
C2571      S2575   1.803       .  S
C2572      C2573   1.400       .  A
C2573      C2574   1.399       .  A
C2573      H2580   1.084       .  S
C2574      S2576   1.805       .  S
S2575      H2578   1.405       .  S
S2576      H2577   1.404       .  S
C2581      C2582   1.407       .  A
C2581      C2586   1.421       .  A
C2582      C2583   1.400       .  A
C2582      H2591   1.084       .  S
C2583      C2584   1.417       .  A
C2583      S2587   1.802       .  S
C2584      C2585   1.407       .  A
C2585      C2586   1.403       .  A
C2585      H2592   1.082       .  S
C2586      S2588   1.811       .  S
S2587      H2590   1.408       .  S
S2588      H2589   1.406       .  S
C2593      C2594   1.400       .  A
C2593      C2598   1.408       .  A
C2594      C2595   1.398       .  A
C2594      H2603   1.084       .  S
C2595      C2596   1.422       .  A
C2595      S2599   1.812       .  S
C2596      C2597   1.412       .  A
C2597      C2598   1.401       .  A
C2597      H2604   1.084       .  S
C2598      S2600   1.802       .  S
S2599      H2602   1.407       .  S
S2600      H2601   1.406       .  S
C2605      C2606   1.405       .  A
C2605      C2610   1.418       .  A
C2606      C2607   1.403   1_655  A
C2606      H2615   1.084       .  S
C2607      C2608   1.418       .  A
C2607      S2611   1.805       .  S
C2608      C2609   1.407       .  A
C2609      C2610   1.409   1_455  A
C2609      H2616   1.083       .  S
C2610      S2612   1.803       .  S
S2611      H2614   1.407       .  S
S2612      H2613   1.407       .  S
C2617      C2618   1.410       .  A
C2617      C2622   1.422       .  A
C2618      C2619   1.405   1_545  A
C2618      H2627   1.084       .  S
C2619      C2620   1.412       .  A
C2619      S2623   1.803       .  S
C2620      C2621   1.400       .  A
C2621      C2622   1.399   1_565  A
C2621      H2628   1.085       .  S
C2622      S2624   1.804       .  S
S2623      H2626   1.404       .  S
S2624      H2625   1.408       .  S
C2629      C2630   1.403       .  A
C2629      C2634   1.410       .  A
C2630      C2631   1.403       .  A
C2630      H2639   1.084       .  S
C2631      C2632   1.411       .  A
C2631      S2635   1.796       .  S
C2632      C2633   1.403       .  A
C2633      C2634   1.402       .  A
C2633      H2640   1.083       .  S
C2634      S2636   1.796       .  S
S2635      H2638   1.405       .  S
S2636      H2637   1.406       .  S
C2641      C2642   1.406       .  A
C2641      C2646   1.408       .  A
C2642      C2643   1.404       .  A
C2642      H2651   1.082       .  S
C2643      C2644   1.413       .  A
C2643      S2647   1.800       .  S
C2644      C2645   1.406       .  A
C2645      C2646   1.406       .  A
C2645      H2652   1.083       .  S
C2646      S2648   1.797       .  S
S2647      H2650   1.406       .  S
S2648      H2649   1.407       .  S
C2653      C2654   1.406       .  A
C2653      C2658   1.415       .  A
C2654      C2655   1.406   1_556  A
C2654      H2663   1.082       .  S
C2655      C2656   1.417       .  A
C2655      S2659   1.803       .  S
C2656      C2657   1.404       .  A
C2657      C2658   1.397   1_554  A
C2657      H2664   1.084       .  S
C2658      S2660   1.805       .  S
S2659      H2662   1.407       .  S
S2660      H2661   1.406       .  S
C2665      C2666   1.402       .  A
C2665      C2670   1.412       .  A
C2666      C2667   1.403   1_545  A
C2666      H2675   1.085       .  S
C2667      C2668   1.417       .  A
C2667      S2671   1.805       .  S
C2668      C2669   1.404       .  A
C2669      C2670   1.402   1_565  A
C2669      H2676   1.084       .  S
C2670      S2672   1.802       .  S
S2671      H2674   1.404       .  S
S2672      H2673   1.405       .  S
C2677      C2678   1.406       .  A
C2677      C2682   1.411       .  A
C2678      C2679   1.403       .  A
C2678      H2687   1.084       .  S
C2679      C2680   1.410       .  A
C2679      S2683   1.799       .  S
C2680      C2681   1.403       .  A
C2681      C2682   1.400       .  A
C2681      H2688   1.083       .  S
C2682      S2684   1.797       .  S
S2683      H2686   1.406       .  S
S2684      H2685   1.405       .  S
C2689      C2690   1.404       .  A
C2689      C2694   1.412       .  A
C2690      C2691   1.405       .  A
C2690      H2699   1.084       .  S
C2691      C2692   1.414       .  A
C2691      S2695   1.805       .  S
C2692      C2693   1.405       .  A
C2693      C2694   1.406       .  A
C2693      H2700   1.084       .  S
C2694      S2696   1.800       .  S
S2695      H2698   1.407       .  S
S2696      H2697   1.406       .  S
C2701      C2702   1.401       .  A
C2701      C2706   1.411       .  A
C2702      C2703   1.399       .  A
C2702      H2711   1.083       .  S
C2703      C2704   1.424       .  A
C2703      S2707   1.812       .  S
C2704      C2705   1.411       .  A
C2705      C2706   1.407       .  A
C2705      H2712   1.083       .  S
C2706      S2708   1.799       .  S
S2707      H2710   1.407       .  S
S2708      H2709   1.407       .  S
C2713      C2714   1.397       .  A
C2713      C2718   1.411       .  A
C2714      C2715   1.398   1_554  A
C2714      H2723   1.085       .  S
C2715      C2716   1.424       .  A
C2715      S2719   1.802       .  S
C2716      C2717   1.410       .  A
C2717      C2718   1.406   1_556  A
C2717      H2724   1.083       .  S
C2718      S2720   1.802       .  S
S2719      H2722   1.399       .  S
S2720      H2721   1.406       .  S
C2725      C2726   1.408       .  A
C2725      C2730   1.418       .  A
C2726      C2727   1.403   1_655  A
C2726      H2735   1.084       .  S
C2727      C2728   1.411       .  A
C2727      S2731   1.800       .  S
C2728      C2729   1.400       .  A
C2729      C2730   1.397   1_455  A
C2729      H2736   1.085       .  S
C2730      S2732   1.804       .  S
S2731      H2734   1.403       .  S
S2732      H2733   1.408       .  S
C2737      C2738   1.407       .  A
C2737      C2742   1.416       .  A
C2738      C2739   1.396       .  A
C2738      H2747   1.082       .  S
C2739      C2740   1.420       .  A
C2739      S2743   1.814       .  S
C2740      C2741   1.406       .  A
C2741      C2742   1.400       .  A
C2741      H2748   1.083       .  S
C2742      S2744   1.802       .  S
S2743      H2746   1.407       .  S
S2744      H2745   1.401       .  S
C2749      C2750   1.397       .  A
C2749      C2754   1.415       .  A
C2750      C2751   1.386       .  A
C2750      H2759   1.085       .  S
C2751      C2752   1.412       .  A
C2751      S2755   1.793       .  S
C2752      C2753   1.406       .  A
C2753      C2754   1.408       .  A
C2753      H2760   1.083       .  S
C2754      S2756   1.801       .  S
S2755      H2758   1.401       .  S
S2756      H2757   1.406       .  S
C2761      C2762   1.405       .  A
C2761      C2766   1.415       .  A
C2762      C2763   1.410       .  A
C2762      H2771   1.084       .  S
C2763      C2764   1.417       .  A
C2763      S2767   1.803       .  S
C2764      C2765   1.402       .  A
C2765      C2766   1.401       .  A
C2765      H2772   1.083       .  S
C2766      S2768   1.805       .  S
S2767      H2770   1.405       .  S
S2768      H2769   1.407       .  S
C2773      C2774   1.400       .  A
C2773      C2778   1.416       .  A
C2774      C2775   1.398       .  A
C2774      H2783   1.084       .  S
C2775      C2776   1.414       .  A
C2775      S2779   1.805       .  S
C2776      C2777   1.398       .  A
C2777      C2778   1.400       .  A
C2777      H2784   1.084       .  S
C2778      S2780   1.796       .  S
S2779      H2782   1.407       .  S
S2780      H2781   1.405       .  S
