geometry optimzed in LAMMPS
_audit_creation_date              2020-11-30 
_audit_creation_method            'lammps2cif' 
_symmetry_space_group_name_H-M    'P1' 
_symmetry_Int_Tables_number       1 
_symmetry_cell_setting            triclinic 
loop_ 
_symmetry_equiv_pos_as_xyz 
  x,y,z 
_cell_length_a                    58.41122447 
_cell_length_b                    58.50530904267626 
_cell_length_c                    38.88356268525257 
_cell_angle_alpha                 90.11021967222467 
_cell_angle_beta                  90.2208043046401 
_cell_angle_gamma                 121.40776636298398 
loop_ 
_atom_site_label 
_atom_site_type_symbol 
_atom_site_fract_x 
_atom_site_fract_y 
_atom_site_fract_z 
_atom_site_charge 
N1          N  0.01213690  0.52520362  0.02914819    -0.27100
N2          N  0.01779485  0.54773936  0.01388936    -0.34900
C3          C  0.02183668  0.54349531  0.47722932     0.01300
C4          C  0.01951780  0.51899546  0.47215353     0.07300
C5          C  0.01229963  0.50847481  0.00550919    -0.05800
H6          H  0.02324976  0.55729265  0.45769891     0.07900
H7          H  0.00813736  0.48854589  0.01093813     0.09100
Cu8        Cu  0.01986603  0.57993361  0.03948950     0.44200
Cu9        Cu  0.00399953  0.51786492  0.08130463     0.42000
Cu10       Cu  0.99909080  0.56861515  0.12823619     0.43900
N11         N  0.01579953  0.60712907  0.06912720    -0.34500
N12         N  0.00627669  0.60208500  0.10079851    -0.28700
C13         C  0.00356220  0.62238572  0.11173245    -0.04800
C14         C  0.01231810  0.64129399  0.08592503     0.07400
C15         C  0.02006723  0.63109249  0.05937591     0.01200
H16         H  0.99617894  0.62348122  0.13675907     0.08800
H17         H  0.02736076  0.63997180  0.03437691     0.07900
N18         N  0.99813121  0.53621559  0.15141479    -0.35900
N19         N  0.99945336  0.51737200  0.13432891    -0.28100
C20         C  0.99972114  0.50013098  0.15697724    -0.03300
C21         C  0.99883610  0.50875186  0.18984849     0.05300
C22         C  0.99783093  0.53164875  0.18533481     0.03400
H23         H  0.00151282  0.48320877  0.15004199     0.08500
H24         H  0.99754270  0.54445947  0.20525371     0.07300
N25         N  0.53356727  0.51074324  0.07572182    -0.27100
N26         N  0.55553580  0.52957629  0.06042245    -0.34900
C27         C  0.55363439  0.52426998  0.02644907     0.01300
C28         C  0.52931905  0.50095304  0.02005211     0.07300
C29         C  0.51721002  0.49285718  0.05191816    -0.05800
H30         H  0.56832601  0.53707787  0.00766398     0.07900
H31         H  0.49738924  0.47602361  0.05718948     0.09100
Cu32       Cu  0.58556376  0.56338822  0.08571660     0.44200
Cu33       Cu  0.52516164  0.51202634  0.12746764     0.42000
Cu34       Cu  0.56880870  0.57553107  0.17054187     0.43900
N35         N  0.60983917  0.59808872  0.11394745    -0.34500
N36         N  0.60284035  0.60328015  0.14392263    -0.28700
C37         C  0.62196183  0.62796302  0.15437972    -0.04800
C38         C  0.64212935  0.63856505  0.13011242     0.07400
C39         C  0.63387005  0.61908874  0.10490056     0.01200
H40         H  0.62156664  0.63719527  0.17836829     0.08800
H41         H  0.64430708  0.62026053  0.08145337     0.07900
N42         N  0.53679819  0.54264985  0.19428047    -0.35900
N43         N  0.52074752  0.51950118  0.17867502    -0.28100
C44         C  0.50298957  0.50217554  0.20164909    -0.03300
C45         C  0.50838554  0.51496472  0.23326700     0.05300
C46         C  0.52991764  0.54055190  0.22760975     0.03400
H47         H  0.48802949  0.48151868  0.19606688     0.08500
H48         H  0.54028904  0.55635177  0.24653832     0.07300
N49         N  0.01604136  0.49721186  0.38353730    -0.27100
N50         N  0.01838435  0.47877182  0.40001168    -0.34900
C51         C  0.01974404  0.48355790  0.43400884     0.01300
C52         C  0.01847805  0.50624649  0.43912737     0.07300
C53         C  0.01615035  0.51441996  0.40662610    -0.05800
H54         H  0.02164270  0.47146969  0.45347308     0.07900
H55         H  0.01438150  0.53140550  0.40020694     0.09100
Cu56       Cu  0.01927519  0.44764609  0.37598377     0.44200
Cu57       Cu  0.01166972  0.49755158  0.33062362     0.42000
Cu58       Cu  0.00117382  0.43844650  0.28604043     0.43900
N59         N  0.01430111  0.41558677  0.34713535    -0.34500
N60         N  0.00578792  0.41123657  0.31486607    -0.28700
C61         C  0.00202105  0.38757200  0.30442922    -0.04800
C62         C  0.00902325  0.37686577  0.33120972     0.07400
C63         C  0.01685160  0.39516573  0.35782357     0.01200
H64         H  0.99511795  0.37901820  0.27906468     0.08800
H65         H  0.02307299  0.39335615  0.38344834     0.07900
N66         N  0.00157502  0.47021998  0.26164113    -0.35900
N67         N  0.00534005  0.49177034  0.27798823    -0.28100
C68         C  0.00465519  0.50858986  0.25505739    -0.03300
C69         C  0.00042875  0.49715667  0.22269946     0.05300
C70         C  0.99864000  0.47288038  0.22780432     0.03400
H71         H  0.00738200  0.52786164  0.26146636     0.08500
H72         H  0.99547343  0.45821029  0.20837272     0.07300
N73         N  0.49734181  0.49375793  0.42866313    -0.27100
N74         N  0.48008229  0.47204904  0.44581915    -0.34900
C75         C  0.49260005  0.46607312  0.98044224     0.01300
C76         C  0.51726777  0.48905077  0.98629808     0.07300
C77         C  0.51433673  0.51256545  0.45121999    -0.05800
H78         H  0.47874777  0.45269205  0.99957383     0.07900
H79         H  0.53028211  0.53242875  0.44422509     0.09100
Cu80       Cu  0.44878109  0.43796664  0.42275892     0.44200
Cu81       Cu  0.49565705  0.49704468  0.37548294     0.42000
Cu82       Cu  0.43724334  0.44318300  0.33195958     0.43900
N83         N  0.41552752  0.40906378  0.39558686    -0.34500
N84         N  0.41043056  0.41186564  0.36319173    -0.28700
C85         C  0.38607679  0.39108815  0.35437835    -0.04800
C86         C  0.37568404  0.37425865  0.38235412     0.07400
C87         C  0.39486882  0.38609181  0.40795366     0.01200
H88         H  0.37683534  0.38824191  0.32932661     0.08800
H89         H  0.39353709  0.37900436  0.43400098     0.07900
N90         N  0.46858567  0.47546626  0.30646437    -0.35900
N91         N  0.48956289  0.49538606  0.32247865    -0.28100
C92         C  0.50640065  0.51280974  0.29893069    -0.03300
C93         C  0.49572665  0.50323986  0.26654772     0.05300
C94         C  0.47175538  0.47950599  0.27227527     0.03400
H95         H  0.52550098  0.53060196  0.30491871     0.08500
H96         H  0.45780584  0.46594667  0.25300903     0.07300
N97         N  0.40990886  0.00631169  0.47983016    -0.27100
N98         N  0.41389331  0.01392257  0.44730662    -0.34900
C99         C  0.39330056  0.01619730  0.43627578     0.01300
C100        C  0.37530442  0.00913098  0.46297336     0.07300
C101        C  0.38634948  0.00285160  0.49012758    -0.05800
H102        H  0.39118353  0.02173600  0.41046577     0.07900
H103        H  0.37812481  0.99669118  0.51564181     0.09100
Cu104      Cu  0.44581652  0.01816784  0.41876537     0.44200
Cu105      Cu  0.43744583  0.00247528  0.50911808     0.42000
Cu106      Cu  0.49419053  0.00760527  0.46415432     0.43900
N107        N  0.47636896  0.01617283  0.39465280    -0.34500
N108        N  0.49415499  0.01262040  0.41108258    -0.28700
C109        C  0.51066440  0.01162034  0.38788278    -0.04800
C110        C  0.50266285  0.01434083  0.35535405     0.07400
C111        C  0.48086504  0.01715102  0.36061536     0.01200
H112        H  0.52680392  0.00836534  0.39418795     0.08800
H113        H  0.46892484  0.01944057  0.34113573     0.07900
N114        N  0.48943345  0.00362433  0.51734692    -0.35900
N115        N  0.46111103  0.98559429  0.03339808    -0.28100
C116        C  0.46419576  0.98386143  0.06742312    -0.03300
C117        C  0.48807151  0.98476011  0.07288340     0.05300
C118        C  0.49872702  0.98700849  0.04041882     0.03400
H119        H  0.45057738  0.98308645  0.08679801     0.08500
H120        H  0.51788113  0.98936290  0.03428205     0.07300
N121        N  0.51916364  0.00782375  0.26685390    -0.27100
N122        N  0.54070650  0.01149450  0.28328718    -0.34900
C123        C  0.53824734  0.01464327  0.31705745     0.01300
C124        C  0.51411580  0.01313793  0.32220214     0.07300
C125        C  0.50255126  0.00891235  0.28982963    -0.05800
H126        H  0.55288307  0.01755216  0.33646265     0.07900
H127        H  0.48315773  0.00604124  0.28355922     0.09100
Cu128      Cu  0.57218154  0.01115477  0.25970649     0.44200
Cu129      Cu  0.51272379  0.99976138  0.21424860     0.42000
Cu130      Cu  0.56298451  0.99220912  0.16996070     0.43900
N131        N  0.59954049  0.00668882  0.23155056    -0.34500
N132        N  0.59552757  0.99836544  0.19922361    -0.28700
C133        C  0.61597977  0.99562255  0.18919031    -0.04800
C134        C  0.63382616  0.00302091  0.21634387     0.07400
C135        C  0.62291567  0.01004972  0.24273298     0.01200
H136        H  0.61791297  0.98913267  0.16383224     0.08800
H137        H  0.63096127  0.01640767  0.26842890     0.07900
N138        N  0.52991167  0.98938884  0.14561177    -0.35900
N139        N  0.51136767  0.99180706  0.16171462    -0.28100
C140        C  0.49318937  0.98970527  0.13848646    -0.03300
C141        C  0.50081790  0.98603971  0.10623816     0.05300
C142        C  0.52417533  0.98594254  0.11175125     0.03400
H143        H  0.47620002  0.99160843  0.14449998     0.08500
H144        H  0.53642284  0.98406095  0.09252861     0.07300
N145        N  0.80571074  0.76706395  0.12968582    -0.27100
N146        N  0.79204128  0.74183352  0.11926066    -0.34900
C147        C  0.80920233  0.73344032  0.11376491     0.01300
C148        C  0.83498024  0.75442443  0.12080637     0.07300
C149        C  0.83196007  0.77545302  0.13082162    -0.05800
H150        H  0.80325263  0.71340241  0.10564528     0.07900
H151        H  0.84749296  0.79510238  0.13958489     0.09100
Cu152      Cu  0.75051516  0.71881099  0.11587518     0.44200
Cu153      Cu  0.78797821  0.78837375  0.14412451     0.42000
Cu154      Cu  0.71615989  0.74700877  0.15724629     0.43900
N155        N  0.70952822  0.69730132  0.12484235    -0.34500
N156        N  0.69735949  0.70717608  0.14260782    -0.28700
C157        C  0.67157638  0.68782739  0.14730662    -0.04800
C158        C  0.66723353  0.66480194  0.13119794     0.07400
C159        C  0.69165550  0.67151951  0.11706814     0.01200
H160        H  0.65700083  0.69046174  0.16094780     0.08800
H161        H  0.69632303  0.65839783  0.10318765     0.07900
N162        N  0.73771463  0.78837619  0.16094616    -0.35900
N163        N  0.76386208  0.80347458  0.15626271    -0.28100
C164        C  0.77119161  0.82934492  0.15817906    -0.03300
C165        C  0.74851839  0.83076216  0.16410396     0.05300
C166        C  0.72765565  0.80421431  0.16565517     0.03400
H167        H  0.79156962  0.84582592  0.15480706     0.08500
H168        H  0.70653055  0.79663754  0.16845581     0.07300
N169        N  0.97526560  0.76413181  0.10461700    -0.27100
N170        N  0.96200268  0.73797523  0.10920631    -0.34900
C171        C  0.93601543  0.72935585  0.11476025     0.01300
C172        C  0.93265995  0.75125162  0.11376515     0.07300
C173        C  0.95822865  0.77291303  0.10733527    -0.05800
H174        H  0.92091372  0.70856967  0.11804039     0.07900
H175        H  0.96419736  0.79361614  0.10378742     0.09100
Cu176      Cu  0.97958763  0.71505118  0.10500628     0.44200
Cu177      Cu  0.01509674  0.78657015  0.09062067     0.42000
Cu178      Cu  0.04469958  0.74865565  0.06383398     0.43900
N179        N  0.00087955  0.69653918  0.09381554    -0.34500
N180        N  0.02380195  0.70835970  0.07684002    -0.28700
C181        C  0.03135062  0.69050443  0.07132563    -0.04800
C182        C  0.01253509  0.66650661  0.08613111     0.07400
C183        C  0.99356484  0.67102434  0.10029308     0.01200
H184        H  0.04937068  0.69480071  0.05808704     0.08800
H185        H  0.97539520  0.65663466  0.11339270     0.07900
N186        N  0.06360247  0.78995121  0.05906194    -0.35900
N187        N  0.05292978  0.80382463  0.06959606    -0.28100
C188        C  0.07022347  0.82995110  0.06363627    -0.03300
C189        C  0.09309829  0.83284126  0.04867818     0.05300
C190        C  0.08803925  0.80691755  0.04610659     0.03400
H191        H  0.06641904  0.84565753  0.07010989     0.08500
H192        H  0.10087495  0.80057663  0.03526899     0.07300
N193        N  0.20992409  0.25022157  0.37707613    -0.27100
N194        N  0.22306469  0.27666598  0.37609470    -0.34900
C195        C  0.20516766  0.28458285  0.37537385     0.01300
C196        C  0.17953403  0.26200401  0.37561985     0.07300
C197        C  0.18342171  0.24061485  0.37671994    -0.05800
H198        H  0.21044137  0.30525331  0.37474133     0.07900
H199        H  0.16815029  0.21954688  0.37833888     0.09100
Cu200      Cu  0.26475456  0.30052569  0.37695558     0.44200
Cu201      Cu  0.22829371  0.22819533  0.38141461     0.42000
Cu202      Cu  0.29964137  0.26519930  0.39553114     0.43900
N203        N  0.30623235  0.31912544  0.38170914    -0.34500
N204        N  0.31862582  0.30643575  0.39054043    -0.28700
C205        C  0.34514205  0.32424284  0.39292515    -0.04800
C206        C  0.34966190  0.34916146  0.38450198     0.07400
C207        C  0.32467122  0.34526412  0.37737172     0.01200
H208        H  0.36009054  0.31923860  0.39909187     0.08800
H209        H  0.32018798  0.36033636  0.36992555     0.07900
N210        N  0.27652549  0.22368338  0.39486978    -0.35900
N211        N  0.25029199  0.21016812  0.38987299    -0.28100
C212        C  0.24095396  0.18380848  0.39204515    -0.03300
C213        C  0.26237664  0.18051083  0.39861517     0.05300
C214        C  0.28466261  0.20625154  0.39997257     0.03400
H215        H  0.22010557  0.16825968  0.38895571     0.08500
H216        H  0.30514786  0.21191873  0.40516369     0.07300
N217        N  0.03785642  0.24913205  0.35980498    -0.27100
N218        N  0.05149949  0.27525992  0.36509149    -0.34900
C219        C  0.07709477  0.28323612  0.37261728     0.01300
C220        C  0.07977770  0.26100030  0.37215621     0.07300
C221        C  0.05434132  0.23972619  0.36391729    -0.05800
H222        H  0.09278663  0.30392834  0.37602169     0.07900
H223        H  0.04835610  0.21903530  0.35993780     0.09100
Cu224      Cu  0.03531295  0.29914204  0.35766127     0.44200
Cu225      Cu  0.99846647  0.22831666  0.34289490     0.42000
Cu226      Cu  0.97288614  0.26862833  0.30907834     0.43900
N227        N  0.01672848  0.31951010  0.34218626    -0.34500
N228        N  0.99507481  0.30887986  0.32238160    -0.28700
C229        C  0.98924124  0.32775575  0.31505463    -0.04800
C230        C  0.00782257  0.35118046  0.33155237     0.07400
C231        C  0.02486242  0.34525469  0.34865447     0.01200
H232        H  0.97228133  0.32444868  0.29969365     0.08800
H233        H  0.04223731  0.35880093  0.36408484     0.07900
N234        N  0.95177451  0.22710314  0.30753430    -0.35900
N235        N  0.96093345  0.21259006  0.32076320    -0.28100
C236        C  0.94239674  0.18652965  0.31656791    -0.03300
C237        C  0.92033568  0.18433890  0.29983992     0.05300
C238        C  0.92708951  0.21059311  0.29449518     0.03400
H239        H  0.94492606  0.17044212  0.32518017     0.08500
H240        H  0.91531696  0.21739953  0.28157936     0.07300
N241        N  0.24804684  0.04027902  0.43756750    -0.27100
N242        N  0.27400689  0.05274237  0.43121479    -0.34900
C243        C  0.28266892  0.07803847  0.42173272     0.01300
C244        C  0.26108916  0.08184372  0.42176475     0.07300
C245        C  0.23944480  0.05728821  0.43200233    -0.05800
H246        H  0.30343801  0.09268594  0.41676464     0.07900
H247        H  0.21901492  0.05220565  0.43596398     0.09100
Cu248      Cu  0.29730659  0.03581577  0.43826219     0.44200
Cu249      Cu  0.22644782  0.00180515  0.45734417     0.42000
Cu250      Cu  0.26777825  0.97538236  0.48697325     0.43900
N251        N  0.31807760  0.01735268  0.45251569    -0.34500
N252        N  0.30756635  0.99592089  0.47230007    -0.28700
C253        C  0.32633033  0.98980398  0.47925417    -0.04800
C254        C  0.34961960  0.00803710  0.46250631     0.07400
C255        C  0.34370288  0.02514917  0.44566044     0.01200
H256        H  0.32310950  0.97309834  0.49475119     0.08800
H257        H  0.35719506  0.04238457  0.43036886     0.07900
N258        N  0.22675863  0.95637864  0.49368965    -0.35900
N259        N  0.21167133  0.96561131  0.48262080    -0.28100
C260        C  0.18593901  0.94785484  0.49042502    -0.03300
C261        C  0.18475960  0.92637998  0.50720984     0.05300
C262        C  0.21106377  0.93252975  0.50869570     0.03400
H263        H  0.16934569  0.95020886  0.48346317     0.08500
H264        H  0.21837147  0.92055983  0.51974188     0.07300
N265        N  0.79655870  0.04499263  0.23604316    -0.27100
N266        N  0.78196948  0.05481189  0.24679138    -0.34900
C267        C  0.79828755  0.07940852  0.25990047     0.01300
C268        C  0.82454346  0.08544565  0.25750658     0.07300
C269        C  0.82259414  0.06306706  0.24208474    -0.05800
H270        H  0.79140082  0.09188645  0.27042582     0.04900
H271        H  0.83876310  0.06018439  0.23489499     0.09100
Cu272      Cu  0.74070433  0.03501322  0.24176464     0.44200
Cu273      Cu  0.78032904  0.00768581  0.21320238     0.42000
Cu274      Cu  0.70924789  0.97326752  0.19318929     0.43900
N275        N  0.70065176  0.01424283  0.22764612    -0.34500
N276        N  0.68960330  0.99258698  0.20796005    -0.28700
C277        C  0.66416640  0.98535334  0.20074472    -0.04800
C278        C  0.65891580  0.00306276  0.21717439     0.07400
C279        C  0.68236510  0.02103717  0.23415176     0.01200
H280        H  0.65040880  0.96823072  0.18512927     0.08800
H281        H  0.68614219  0.03826706  0.24918255     0.07900
N282        N  0.73263861  0.95662472  0.18607088    -0.35900
N283        N  0.75860857  0.96933763  0.19298355    -0.28100
C284        C  0.76753335  0.95262781  0.18756835    -0.03300
C285        C  0.74613121  0.92812947  0.17691497     0.05300
C286        C  0.72429037  0.93137956  0.17636196     0.03400
H287        H  0.78780585  0.95755979  0.19293223     0.08500
H288        H  0.70371183  0.91633402  0.17028360     0.07300
C289        C  0.84852041  0.13424908  0.27224648    -0.21100
C290        C  0.84912892  0.11066617  0.26840094    -0.09100
C291        C  0.87323921  0.11156608  0.27546086     0.29700
C292        C  0.89612849  0.13556313  0.28548380    -0.21100
C293        C  0.89560516  0.15919184  0.28910253    -0.09200
C294        C  0.87137856  0.15821944  0.28262075     0.29700
F295        F  0.86936839  0.18010230  0.28712923    -0.19700
H296        H  0.83032712  0.13429115  0.26710653     0.18100
H297        H  0.91438347  0.13553086  0.29025236     0.18100
F298        F  0.87473794  0.08922938  0.27370669    -0.19700
C299        C  0.23986800  0.10963196  0.42601684    -0.21100
C300        C  0.26134971  0.10706216  0.41496283    -0.09100
C301        C  0.28294562  0.12892723  0.39793973     0.29700
C302        C  0.28312056  0.15268235  0.39290231    -0.21100
C303        C  0.26167579  0.15511459  0.40400252    -0.09200
C304        C  0.23992953  0.13329006  0.42053498     0.29700
F305        F  0.21917800  0.13511268  0.43266400    -0.19700
H306        H  0.22308171  0.09351512  0.43954127     0.18100
H307        H  0.29994207  0.16912212  0.37973341     0.18100
F308        F  0.30373182  0.12742543  0.38535236    -0.19700
C309        C  0.10653372  0.23959954  0.35988216    -0.21100
C310        C  0.10494489  0.26056985  0.37507160    -0.09100
C311        C  0.12787805  0.28138504  0.39170782     0.29700
C312        C  0.15197827  0.28167855  0.39172444    -0.21100
C313        C  0.15366976  0.26103969  0.37586762    -0.09200
C314        C  0.13054741  0.23973675  0.36030391     0.29700
F315        F  0.13133098  0.21958962  0.34411036    -0.19700
H316        H  0.08942492  0.22337645  0.34670463     0.18100
H317        H  0.16932729  0.29799656  0.40458333     0.18100
F318        F  0.12704998  0.30126477  0.40854291    -0.19700
C319        C  0.11597795  0.88111292  0.03191284    -0.21100
C320        C  0.11748240  0.85827105  0.03812096    -0.09100
C321        C  0.14247987  0.86033424  0.03480356     0.29700
C322        C  0.16523627  0.88464639  0.02566927    -0.21100
C323        C  0.16069011  0.90149880  0.51930759    -0.09200
C324        C  0.13717016  0.90097629  0.52861979     0.29700
F325        F  0.13608316  0.92357891  0.52826598    -0.19700
H326        H  0.09704819  0.88021898  0.03399341     0.18100
H327        H  0.18402697  0.88531597  0.02330126     0.18100
F328        F  0.14537236  0.83922652  0.04143740    -0.19700
C329        C  0.90805359  0.77585530  0.11059112    -0.21100
C330        C  0.90741568  0.75176259  0.11645690    -0.09100
C331        C  0.88249575  0.72865511  0.12434844     0.29700
C332        C  0.85916574  0.72975884  0.12558277    -0.21100
C333        C  0.85999786  0.75382005  0.11955806    -0.09200
C334        C  0.88477294  0.77696624  0.11221915     0.29700
F335        F  0.88649465  0.80055306  0.10541526    -0.19700
H336        H  0.92657369  0.79413594  0.10427973     0.18100
H337        H  0.84038550  0.71169858  0.13179910     0.18100
F338        F  0.88030842  0.70491448  0.13127771    -0.19700
C339        C  0.76908846  0.88007909  0.15564055    -0.21100
C340        C  0.74709037  0.85539895  0.16632412    -0.09100
C341        C  0.72426250  0.85490031  0.17919080     0.29700
C342        C  0.72379195  0.87850143  0.18145450    -0.21100
C343        C  0.74611037  0.90311258  0.17168553    -0.09200
C344        C  0.76872179  0.90367381  0.15844782     0.29700
F345        F  0.79038836  0.92697089  0.14771326    -0.19700
H346        H  0.78677676  0.88133756  0.14498489     0.18100
H347        H  0.70624473  0.87762598  0.19210040     0.18100
F348        F  0.70269112  0.83199375  0.19088164    -0.19700
N349        N  0.01931541  0.52664536  0.52782484    -0.27100
N350        N  0.02177457  0.54753943  0.51126790    -0.34900
C351        C  0.02137229  0.54580544  0.98006423     0.01300
C352        C  0.01807661  0.52097891  0.97384095     0.07300
C353        C  0.01803268  0.50887082  0.50472158    -0.05800
H354        H  0.02602864  0.56132618  0.96145251     0.07900
H355        H  0.01564623  0.48977941  0.51118424     0.09100
Cu356      Cu  0.02331746  0.58000706  0.53500537     0.44200
Cu357      Cu  0.01602968  0.52220610  0.58086191     0.42000
Cu358      Cu  0.00732623  0.57154596  0.62493533     0.43900
N359        N  0.01705889  0.60623547  0.56327604    -0.34500
N360        N  0.00925448  0.60198941  0.59570037    -0.28700
C361        C  0.00422792  0.62092386  0.60586736    -0.04800
C362        C  0.00960987  0.63811250  0.57865878     0.07400
C363        C  0.01788447  0.62839369  0.55213923     0.01200
H364        H  0.99778906  0.62241986  0.63136440     0.08800
H365        H  0.02340745  0.63640128  0.52642331     0.07900
N366        N  0.00885958  0.54112666  0.64974891    -0.35900
N367        N  0.01150415  0.52267650  0.63374632    -0.28100
C368        C  0.01133252  0.50571079  0.65722331    -0.03300
C369        C  0.00877402  0.51416288  0.68947960     0.05300
C370        C  0.00734097  0.53667291  0.68378118     0.03400
H371        H  0.01336566  0.48877618  0.65127472     0.08500
H372        H  0.00519915  0.54888911  0.70293749     0.07300
N373        N  0.52844718  0.52377588  0.57275172    -0.27100
N374        N  0.54733952  0.54476578  0.55593057    -0.34900
C375        C  0.54257009  0.54056593  0.52188779     0.01300
C376        C  0.51962196  0.51567839  0.51703612     0.07300
C377        C  0.51118346  0.50565006  0.54981852    -0.05800
H378        H  0.55517776  0.55437473  0.50218352     0.07900
H379        H  0.49396975  0.48643369  0.55654595     0.09100
Cu380      Cu  0.57947575  0.57747074  0.58007641     0.44200
Cu381      Cu  0.52747864  0.52003467  0.62618700     0.42000
Cu382      Cu  0.58568082  0.57021092  0.67240033     0.43900
N383        N  0.61035829  0.60616989  0.61060358    -0.34500
N384        N  0.61341837  0.60287984  0.64362110    -0.28700
C385        C  0.63600422  0.62464294  0.65529268    -0.04800
C386        C  0.64728722  0.64259464  0.62854675     0.07400
C387        C  0.63056614  0.63035472  0.60063125     0.01200
H388        H  0.64326632  0.62748441  0.68154121     0.08800
H389        H  0.63314193  0.63820450  0.57483921     0.07900
N390        N  0.55280463  0.53838318  0.69649045    -0.35900
N391        N  0.53118320  0.52017906  0.67962244    -0.28100
C392        C  0.51295615  0.50322192  0.70247328    -0.03300
C393        C  0.52363241  0.51114421  0.73529608     0.05300
C394        C  0.54894543  0.53346784  0.73045573     0.03400
H395        H  0.49330394  0.48656660  0.69570106     0.08500
H396        H  0.56332707  0.54564147  0.75022959     0.07300
N397        N  0.01981378  0.50213875  0.88483214    -0.27100
N398        N  0.02049970  0.48280858  0.90146069    -0.34900
C399        C  0.02033470  0.48677735  0.93548824     0.01300
C400        C  0.01976322  0.50984625  0.94061916     0.07300
C401        C  0.01957347  0.51918450  0.90797041    -0.05800
H402        H  0.02014703  0.47354327  0.95499538     0.07900
H403        H  0.01834535  0.53647676  0.90150202     0.09100
Cu404      Cu  0.01966403  0.45071029  0.87767324     0.44200
Cu405      Cu  0.01648347  0.50262487  0.83156151     0.42000
Cu406      Cu  0.00194584  0.44129434  0.78790719     0.43900
N407        N  0.01230819  0.41733817  0.84988453    -0.34500
N408        N  0.00388959  0.41307281  0.81758793    -0.28700
C409        C  0.99846576  0.38871154  0.80772110    -0.04800
C410        C  0.00423047  0.37739843  0.83495799     0.07400
C411        C  0.01312845  0.39607162  0.86121344     0.01200
H412        H  0.99147271  0.38016564  0.78237461     0.08800
H413        H  0.01904774  0.39406493  0.88693775     0.07900
N414        N  0.00566097  0.47422706  0.76292611    -0.35900
N415        N  0.01071180  0.49645494  0.77870640    -0.28100
C416        C  0.01217433  0.51389222  0.75502282    -0.03300
C417        C  0.00817186  0.50216121  0.72288674     0.05300
C418        C  0.00413825  0.47705867  0.72883129     0.03400
H419        H  0.01641196  0.53384245  0.76074756     0.08500
H420        H  0.00044985  0.46195065  0.70980689     0.07300
N421        N  0.50808953  0.48377679  0.93035697    -0.27100
N422        N  0.48770977  0.46351439  0.94638704    -0.34900
C423        C  0.48545905  0.47649742  0.47967118     0.01300
C424        C  0.50722662  0.50220711  0.48412190     0.07300
C425        C  0.52660975  0.49974916  0.95393754    -0.05800
H426        H  0.47407783  0.46217006  0.49957664     0.07900
H427        H  0.54493787  0.51827749  0.94808206     0.09100
Cu428      Cu  0.45288140  0.43459984  0.92185075     0.44200
Cu429      Cu  0.50830455  0.48942602  0.87726756     0.42000
Cu430      Cu  0.44573913  0.44383480  0.83147035     0.43900
N431        N  0.41813013  0.41021956  0.89379673    -0.34500
N432        N  0.41484998  0.41441704  0.86122212    -0.28700
C433        C  0.38984859  0.39564110  0.85107329    -0.04800
C434        C  0.37706845  0.37866479  0.87844132     0.07400
C435        C  0.39560801  0.38836074  0.90498571     0.01200
H436        H  0.38206083  0.39368099  0.82525423     0.08800
H437        H  0.39298444  0.38004115  0.93053338     0.07900
N438        N  0.48069226  0.47312043  0.80748043    -0.35900
N439        N  0.50322650  0.48981633  0.82405605    -0.28100
C440        C  0.52182784  0.50594360  0.80100867    -0.03300
C441        C  0.51057285  0.49897860  0.76837792     0.05300
C442        C  0.48448619  0.47809249  0.77350495     0.03400
H443        H  0.54214310  0.52139567  0.80752734     0.08500
H444        H  0.46932532  0.46721764  0.75394860     0.07300
N445        N  0.40740634  0.99966638  0.98280589    -0.27100
N446        N  0.41249081  0.00966163  0.95137084    -0.34900
C447        C  0.39457420  0.01673861  0.94309034     0.01300
C448        C  0.37721961  0.01045477  0.97048928     0.07300
C449        C  0.38586136  0.99954788  0.99506629    -0.05800
H450        H  0.39376191  0.02507657  0.91864279     0.07900
H451        H  0.37737665  0.99243507  0.02026945     0.09100
Cu452      Cu  0.44277553  0.01146706  0.92115456     0.44200
Cu453      Cu  0.43121916  0.98873646  0.00902836     0.42000
Cu454      Cu  0.48781324  0.99445485  0.96454228     0.43900
N455        N  0.47312290  0.00903659  0.89668336    -0.34500
N456        N  0.48957811  0.00320771  0.91243032    -0.28700
C457        C  0.50679924  0.00351283  0.88926257    -0.04800
C458        C  0.50076792  0.00959640  0.85740392     0.07400
C459        C  0.47929436  0.01289515  0.86304169     0.01200
H460        H  0.52231628  0.99924402  0.89514239     0.08800
H461        H  0.46890776  0.01779863  0.84409258     0.07900
N462        N  0.48192854  0.98762969  0.01714654    -0.35900
N463        N  0.46900516  0.00242854  0.53365193    -0.28100
C464        C  0.47237941  0.00137692  0.56773756    -0.03300
C465        C  0.49588979  0.00159337  0.57320314     0.05300
C466        C  0.50616193  0.00294785  0.54070372     0.03400
H467        H  0.45866816  0.00046032  0.58707242     0.08500
H468        H  0.52467963  0.00391344  0.53450936     0.07300
N469        N  0.52209305  0.01238211  0.76867215    -0.27100
N470        N  0.54183691  0.01234321  0.78538468    -0.34900
C471        C  0.53749031  0.01169558  0.81941317     0.01300
C472        C  0.51399189  0.01154287  0.82442087     0.07300
C473        C  0.50482449  0.01211973  0.79173125    -0.05800
H474        H  0.55026450  0.01088706  0.83900310     0.07900
H475        H  0.48643751  0.01138262  0.78513156     0.09100
Cu476      Cu  0.57280348  0.01125264  0.76136024     0.44200
Cu477      Cu  0.51801971  0.00981669  0.71528688     0.42000
Cu478      Cu  0.56242170  0.99391299  0.67093914     0.43900
N479        N  0.59837164  0.00464516  0.73221262    -0.34500
N480        N  0.59353464  0.99636891  0.69986247    -0.28700
C481        C  0.61314732  0.99258689  0.68893677    -0.04800
C482        C  0.63135449  0.99931329  0.71551440     0.07400
C483        C  0.62152246  0.00702483  0.74247164     0.01200
H484        H  0.61469403  0.98662728  0.66307351     0.08800
H485        H  0.63045149  0.01375894  0.76770351     0.07900
N486        N  0.53329633  0.99810382  0.64620652    -0.35900
N487        N  0.51696496  0.00382633  0.66228343    -0.28100
C488        C  0.50088346  0.00556443  0.63887588    -0.03300
C489        C  0.50766474  0.00101400  0.60655506     0.05300
C490        C  0.52829908  0.99639267  0.61218658     0.03400
H491        H  0.48575038  0.01029174  0.64489104     0.08500
H492        H  0.53898837  0.99220159  0.59300708     0.07300
N493        N  0.80998388  0.77069637  0.63638226    -0.27100
N494        N  0.79642556  0.74475059  0.64287358    -0.34900
C495        C  0.81353680  0.73596007  0.64472341     0.01300
C496        C  0.83931002  0.75734726  0.63908398     0.07300
C497        C  0.83621093  0.77912232  0.63407094    -0.05800
H498        H  0.80742036  0.71526146  0.64866484     0.07900
H499        H  0.85171340  0.79963032  0.62903228     0.09100
Cu500      Cu  0.75511562  0.72163355  0.64575710     0.44200
Cu501      Cu  0.79183127  0.79303260  0.62930773     0.42000
Cu502      Cu  0.71978023  0.75325784  0.61604473     0.43900
N503        N  0.71419898  0.70113435  0.63733190    -0.34500
N504        N  0.70152742  0.71221454  0.62367037    -0.28700
C505        C  0.67571613  0.69302625  0.61812134    -0.04800
C506        C  0.67203681  0.66896810  0.62952702     0.07400
C507        C  0.69673688  0.67480524  0.64168147     0.01200
H508        H  0.66064439  0.69643575  0.60731527     0.08800
H509        H  0.70186044  0.66082753  0.65186385     0.07900
N510        N  0.74154925  0.79487825  0.61896229    -0.35900
N511        N  0.76779283  0.80948787  0.62386212    -0.28100
C512        C  0.77513424  0.83535191  0.62746616    -0.03300
C513        C  0.75238886  0.83713076  0.62518923     0.05300
C514        C  0.73151891  0.81100205  0.61953982     0.03400
H515        H  0.79535439  0.85147556  0.63320863     0.08500
H516        H  0.71043596  0.80397176  0.61688390     0.07300
N517        N  0.97622485  0.76133643  0.61774864    -0.27100
N518        N  0.96145700  0.73493844  0.61944996    -0.34900
C519        C  0.93600106  0.72766391  0.62657990     0.01300
C520        C  0.93472498  0.75064023  0.62932137     0.07300
C521        C  0.96067487  0.77155132  0.62361406    -0.05800
H522        H  0.91942923  0.70713873  0.62750684     0.07900
H523        H  0.96762849  0.79264359  0.62238491     0.09100
Cu524      Cu  0.97611780  0.71023320  0.60758111     0.44200
Cu525      Cu  0.01568338  0.78261607  0.60209484     0.42000
Cu526      Cu  0.03861545  0.74403416  0.55965319     0.43900
N527        N  0.99580175  0.69150116  0.58966266    -0.34500
N528        N  0.01756476  0.70356753  0.57038317    -0.28700
C529        C  0.02520107  0.68612650  0.56261871    -0.04800
C530        C  0.00771255  0.66210764  0.57829213     0.07400
C531        C  0.98936148  0.66613968  0.59532523     0.01200
H532        H  0.04293014  0.69099657  0.54819622     0.08800
H533        H  0.97268386  0.65179299  0.61078322     0.07900
N534        N  0.05984246  0.78539276  0.55996619    -0.35900
N535        N  0.05174043  0.79963051  0.57647316    -0.28100
C536        C  0.06994481  0.82578130  0.57238401    -0.03300
C537        C  0.09070412  0.82818122  0.55244313     0.05300
C538        C  0.08348425  0.80205776  0.54496496     0.03400
H539        H  0.06814624  0.84179419  0.58327282     0.08500
H540        H  0.09422581  0.79543950  0.52931318     0.07300
N541        N  0.21043854  0.25597032  0.87551184    -0.27100
N542        N  0.22442591  0.28109600  0.86489631    -0.34900
C543        C  0.20731707  0.28907072  0.85634603     0.01300
C544        C  0.18130024  0.26795473  0.86151902     0.07300
C545        C  0.18413218  0.24733633  0.87382049    -0.05800
H546        H  0.21342790  0.30880695  0.84680195     0.07900
H547        H  0.16834623  0.22761852  0.88153147     0.09100
Cu548      Cu  0.26621932  0.30417142  0.86320543     0.44200
Cu549      Cu  0.22707382  0.23379736  0.89146643     0.42000
Cu550      Cu  0.29887196  0.27075212  0.89521693     0.43900
N551        N  0.30754370  0.32354844  0.87121915    -0.34500
N552        N  0.31898046  0.31131939  0.88513578    -0.28700
C553        C  0.34520162  0.32914595  0.89022824    -0.04800
C554        C  0.35072667  0.35369205  0.87827658     0.07400
C555        C  0.32647970  0.34949946  0.86620361     0.01200
H556        H  0.35931474  0.32443408  0.90115871     0.08800
H557        H  0.32275173  0.36432443  0.85549361     0.07900
N558        N  0.27574161  0.22992983  0.90311678    -0.35900
N559        N  0.24927720  0.21615228  0.90240848    -0.28100
C560        C  0.24047669  0.19022922  0.90868871    -0.03300
C561        C  0.26258582  0.18751919  0.91341923     0.05300
C562        C  0.28454161  0.21327141  0.90963930     0.03400
H563        H  0.21952195  0.17476337  0.90995132     0.08500
H564        H  0.30551953  0.21958247  0.91104706     0.07300
N565        N  0.04189027  0.25634690  0.82226690    -0.27100
N566        N  0.05199894  0.27929724  0.83903362    -0.34900
C567        C  0.07685106  0.28702054  0.84999339     0.01300
C568        C  0.08296021  0.26812032  0.83948467     0.07300
C569        C  0.06010619  0.24886573  0.82208908    -0.05800
H570        H  0.08928746  0.30509282  0.86475188     0.07900
H571        H  0.05698341  0.23092078  0.80970364     0.09100
Cu572      Cu  0.03247774  0.30015197  0.84469144     0.44200
Cu573      Cu  0.00379457  0.23627314  0.80047695     0.42000
Cu574      Cu  0.96686283  0.27010148  0.80553094     0.43900
N575        N  0.01155178  0.31964873  0.83976852    -0.34500
N576        N  0.98813719  0.30904769  0.82380714    -0.28700
C577        C  0.98163214  0.32783395  0.82040089    -0.04800
C578        C  0.00169124  0.35116449  0.83548472     0.07400
C579        C  0.02029749  0.34532367  0.84766370     0.01200
H580        H  0.96389913  0.32486715  0.80729619     0.08800
H581        H  0.03955224  0.35915226  0.85937833     0.07900
N582        N  0.95056121  0.23141834  0.78726102    -0.35900
N583        N  0.96423140  0.21929381  0.78458784    -0.28100
C584        C  0.94793668  0.19443667  0.77218788    -0.03300
C585        C  0.92259599  0.19054017  0.76685927     0.05300
C586        C  0.92515779  0.21456739  0.77689099     0.03400
H587        H  0.95415459  0.18021160  0.76796743     0.08500
H588        H  0.90970444  0.21943429  0.77785330     0.07300
N589        N  0.25611448  0.05142773  0.95458535    -0.27100
N590        N  0.28209069  0.06447959  0.94788413    -0.34900
C591        C  0.28994105  0.08975344  0.93889921     0.01300
C592        C  0.26782105  0.09267359  0.94002789     0.07300
C593        C  0.24677544  0.06787092  0.94990497    -0.05800
H594        H  0.31027112  0.10482630  0.93211170     0.07900
H595        H  0.22623298  0.06232714  0.95446207     0.09100
Cu596      Cu  0.30592404  0.04765828  0.95313013     0.44200
Cu597      Cu  0.23419626  0.01250225  0.97210891     0.42000
Cu598      Cu  0.27304987  0.98481978  0.99967903     0.43900
N599        N  0.32466689  0.02659853  0.96603824    -0.34500
N600        N  0.31295985  0.00470046  0.98506395    -0.28700
C601        C  0.33010689  0.99619796  0.99006338    -0.04800
C602        C  0.35358431  0.01317586  0.97281937     0.07400
C603        C  0.34949896  0.03223171  0.95775949     0.01200
H604        H  0.32540049  0.97833013  0.00399359     0.08800
H605        H  0.36353388  0.04897031  0.94215433     0.07900
N606        N  0.23162539  0.96460851  0.00356980    -0.35900
N607        N  0.21722094  0.97458724  0.99264530    -0.28100
C608        C  0.19105073  0.95623993  0.99673938    -0.03300
C609        C  0.18871966  0.93339804  0.01112430     0.05300
C610        C  0.21503009  0.93961413  0.01500027     0.03400
H611        H  0.17513027  0.95934510  0.98885993     0.08500
H612        H  0.22179983  0.92693853  0.02516555     0.07300
N613        N  0.79657738  0.04897285  0.71511055    -0.27100
N614        N  0.78252043  0.05955979  0.72528713    -0.34900
C615        C  0.79949956  0.08522030  0.73445075     0.01300
C616        C  0.82552572  0.09099686  0.73008808     0.07300
C617        C  0.82281385  0.06751801  0.71762333    -0.05800
H618        H  0.79330078  0.09853098  0.74407617     0.04900
H619        H  0.83862215  0.06409789  0.71031064     0.09100
Cu620      Cu  0.74102960  0.03879174  0.72583244     0.44200
Cu621      Cu  0.78012303  0.01013807  0.69739315     0.42000
Cu622      Cu  0.70865567  0.97270619  0.68668832     0.43900
N623        N  0.70000468  0.01463171  0.71879365    -0.34500
N624        N  0.68831461  0.99117968  0.70284939    -0.28700
C625        C  0.66196856  0.98196301  0.69938201    -0.04800
C626        C  0.65690013  0.00027368  0.71444732     0.07400
C627        C  0.68135297  0.02065981  0.72662580     0.01200
H628        H  0.64758616  0.96329984  0.68688849     0.08800
H629        H  0.68549094  0.03905187  0.73892532     0.07900
N630        N  0.73296086  0.95782145  0.67378115    -0.35900
N631        N  0.75929132  0.97161813  0.67766893    -0.28100
C632        C  0.76916579  0.95641350  0.66766137    -0.03300
C633        C  0.74797700  0.93170559  0.65696173     0.05300
C634        C  0.72532708  0.93338652  0.66134942     0.03400
H635        H  0.79011462  0.96262656  0.66933830     0.08500
H636        H  0.70473812  0.91790333  0.65625180     0.07300
C637        C  0.85126153  0.14079054  0.73647682    -0.21100
C638        C  0.85067917  0.11652958  0.73791559    -0.09100
C639        C  0.87411734  0.11695179  0.74758804     0.29700
C640        C  0.89733703  0.14106773  0.75636244    -0.21100
C641        C  0.89791423  0.16539489  0.75561947    -0.09200
C642        C  0.87459662  0.16500824  0.74492644     0.29700
F643        F  0.87418151  0.18787687  0.74204622    -0.19700
H644        H  0.83362285  0.14108807  0.72849082     0.18100
H645        H  0.91466207  0.14038402  0.76463105     0.18100
F646        F  0.87442964  0.09399516  0.75017101    -0.19700
C647        C  0.24274548  0.11441323  0.92089038    -0.21100
C648        C  0.26658865  0.11696242  0.93334109    -0.09100
C649        C  0.28871669  0.14272419  0.93995907     0.29700
C650        C  0.28702167  0.16531914  0.93375142    -0.21100
C651        C  0.26332967  0.16291659  0.92074140    -0.09200
C652        C  0.24104669  0.13702313  0.91452479     0.29700
F653        F  0.21778287  0.13330635  0.90146345    -0.19700
H654        H  0.22538608  0.09478300  0.91545836     0.18100
H655        H  0.30440526  0.18479874  0.93964555     0.18100
F656        F  0.31174247  0.14617254  0.95356124    -0.19700
C657        C  0.10845360  0.24445598  0.84167241    -0.21100
C658        C  0.10829309  0.26831201  0.84516977    -0.09100
C659        C  0.13256139  0.29206286  0.85364763     0.29700
C660        C  0.15605991  0.29168588  0.85885824    -0.21100
C661        C  0.15609091  0.26780252  0.85573060    -0.09200
C662        C  0.13201034  0.24413866  0.84679788     0.29700
F663        F  0.13128509  0.22080092  0.84191068    -0.19700
H664        H  0.09029158  0.22584772  0.83506483     0.18100
H665        H  0.17432052  0.31023505  0.86560807     0.18100
F666        F  0.13403289  0.31591156  0.85608893    -0.19700
C667        C  0.11458519  0.87709719  0.53936215    -0.21100
C668        C  0.11495183  0.85329865  0.54118754    -0.09100
C669        C  0.13865638  0.85396605  0.53244882     0.29700
C670        C  0.16118043  0.87780427  0.52161436    -0.21100
C671        C  0.16386581  0.90761948  0.01980313    -0.09200
C672        C  0.13877356  0.90549141  0.02291542     0.29700
F673        F  0.13607580  0.92692813  0.01822390    -0.19700
H674        H  0.09670328  0.87727921  0.54600414     0.18100
H675        H  0.17898221  0.87756312  0.51469245     0.18100
F676        F  0.14049396  0.83186351  0.53513301    -0.19700
C677        C  0.90991276  0.77399978  0.61761502    -0.21100
C678        C  0.91053953  0.75258280  0.63287660    -0.09100
C679        C  0.88782843  0.73311105  0.65073434     0.29700
C680        C  0.86501501  0.73507596  0.65302028    -0.21100
C681        C  0.86420986  0.75633400  0.63738218    -0.09200
C682        C  0.88703589  0.77583519  0.61955539     0.29700
F683        F  0.88709199  0.79612849  0.60269218    -0.19700
H684        H  0.92692018  0.78904862  0.60317984     0.18100
H685        H  0.84798942  0.71990581  0.66728462     0.18100
F686        F  0.88777845  0.71245185  0.66661490    -0.19700
C687        C  0.77249204  0.88690603  0.62366437    -0.21100
C688        C  0.75061959  0.86127184  0.63133946    -0.09100
C689        C  0.72759668  0.85914156  0.64609974     0.29700
C690        C  0.72678721  0.88209237  0.65348973    -0.21100
C691        C  0.74884161  0.90772107  0.64661022    -0.09200
C692        C  0.77163789  0.90992360  0.63102682     0.29700
F693        F  0.79293315  0.93420768  0.62238083    -0.19700
H694        H  0.79030468  0.88914648  0.61185304     0.18100
H695        H  0.70909410  0.87973686  0.66579452     0.18100
F696        F  0.70629426  0.83503099  0.65519097    -0.19700
loop_ 
_geom_bond_atom_site_label_1 
_geom_bond_atom_site_label_2 
_geom_bond_distance 
_geom_bond_site_symmetry_2 
_ccdc_geom_bond_type 
N1            N2   1.323       .  A
N1            C5   1.345       .  A
N1           Cu9   2.079       .  S
N2          C351   1.346   1_554  A
N2           Cu8   2.075       .  S
C3          N350   1.344       .  A
C3            C4   1.381       .  A
C3            H6   1.081       .  S
C4          C353   1.383       .  A
C4           C52   1.469       .  S
C5          C352   1.384   1_554  A
C5            H7   1.081       .  S
Cu8          N11   2.075       .  S
Cu9          N19   2.078   1_455  S
Cu10         N12   2.075   1_655  S
Cu10         N18   2.075       .  S
N11          N12   1.322       .  A
N11          C15   1.345       .  A
N12          C13   1.346       .  A
C13          C14   1.382       .  A
C13          H16   1.081   1_455  S
C14          C15   1.382       .  A
C14         C182   1.469       .  S
C15          H17   1.082       .  S
N18          N19   1.323       .  A
N18          C22   1.345       .  A
N19          C20   1.346       .  A
C20          C21   1.384       .  A
C20          H23   1.082   1_655  S
C21          C22   1.383       .  A
C21          C69   1.473   1_655  S
C22          H24   1.083       .  S
N25          N26   1.323       .  A
N25          C29   1.346       .  A
N25         Cu33   2.083       .  S
N26          C27   1.347       .  A
N26         Cu32   2.078       .  S
C27          C28   1.384       .  A
C27          H30   1.081       .  S
C28          C29   1.386       .  A
C28          C76   1.477   1_554  S
C29          H31   1.080       .  S
Cu32         N35   2.078       .  S
Cu33         N43   2.083       .  S
Cu34         N36   2.078       .  S
Cu34         N42   2.078       .  S
N35          N36   1.323       .  A
N35          C39   1.346       .  A
N36          C37   1.346       .  A
C37          C38   1.383       .  A
C37          H40   1.083       .  S
C38          C39   1.382       .  A
C38         C158   1.470       .  S
C39          H41   1.081       .  S
N42          N43   1.323       .  A
N42          C46   1.345       .  A
N43          C44   1.348       .  A
C44          C45   1.385       .  A
C44          H47   1.081       .  S
C45          C46   1.383       .  A
C45          C93   1.474       .  S
C46          H48   1.083       .  S
N49          N50   1.322       .  A
N49          C53   1.345       .  A
N49         Cu57   2.074       .  S
N50          C51   1.344       .  A
N50         Cu56   2.070       .  S
C51          C52   1.381       .  A
C51          H54   1.081       .  S
C52          C53   1.383       .  A
C53          H55   1.081       .  S
Cu56         N59   2.069       .  S
Cu57         N67   2.074       .  S
Cu58         N60   2.077       .  S
Cu58         N66   2.078       .  S
N59          N60   1.322       .  A
N59          C63   1.345       .  A
N60          C61   1.345       .  A
C61          C62   1.382       .  A
C61          H64   1.082   1_455  S
C62          C63   1.381       .  A
C62         C230   1.467       .  S
C63          H65   1.083       .  S
N66          N67   1.322       .  A
N66          C70   1.346   1_455  A
N67          C68   1.345       .  A
C68          C69   1.383       .  A
C68          H71   1.082       .  S
C69          C70   1.384   1_455  A
C70          H72   1.083       .  S
N73          N74   1.322       .  A
N73          C77   1.348       .  A
N73         Cu81   2.084       .  S
N74         C423   1.345       .  A
N74         Cu80   2.075       .  S
C75         N422   1.345       .  A
C75          C76   1.383       .  A
C75          H78   1.081       .  S
C76         C425   1.388       .  A
C77         C424   1.386       .  A
C77          H79   1.080       .  S
Cu80         N83   2.074       .  S
Cu81         N91   2.084       .  S
Cu82         N84   2.078       .  S
Cu82         N90   2.078       .  S
N83          N84   1.323       .  A
N83          C87   1.345       .  A
N84          C85   1.346       .  A
C85          C86   1.381       .  A
C85          H88   1.081       .  S
C86          C87   1.381       .  A
C86         C206   1.466       .  S
C87          H89   1.083       .  S
N90          N91   1.323       .  A
N90          C94   1.347       .  A
N91          C92   1.346       .  A
C92          C93   1.384       .  A
C92          H95   1.081       .  S
C93          C94   1.384       .  A
C94          H96   1.083       .  S
N97          N98   1.322       .  A
N97         C101   1.345       .  A
N97        Cu105   2.073       .  S
N98          C99   1.346       .  A
N98        Cu104   2.075       .  S
C99         C100   1.382       .  A
C99         H102   1.081       .  S
C100        C101   1.382       .  A
C100        C254   1.468       .  S
C101        H103   1.081   1_545  S
Cu104       N107   2.075       .  S
Cu105       N463   2.074       .  S
Cu106       N108   2.085       .  S
Cu106       N114   2.085       .  S
N107        N108   1.323       .  A
N107        C111   1.346       .  A
N108        C109   1.346       .  A
C109        C110   1.385       .  A
C109        H112   1.082       .  S
C110        C111   1.382       .  A
C110        C124   1.473       .  S
C111        H113   1.082       .  S
N114        N463   1.323       .  A
N114        C466   1.347       .  A
N115        N462   1.322       .  A
N115        C116   1.346       .  A
N115       Cu453   2.074       .  S
C116        C117   1.383       .  A
C116        H119   1.081       .  S
C117        C118   1.385       .  A
C117        C141   1.475       .  S
C118        N462   1.347       .  A
C118        H120   1.081       .  S
N121        N122   1.323       .  A
N121        C125   1.347       .  A
N121       Cu129   2.086   1_545  S
N122        C123   1.344       .  A
N122       Cu128   2.067       .  S
C123        C124   1.381       .  A
C123        H126   1.083       .  S
C124        C125   1.386       .  A
C125        H127   1.082       .  S
Cu128       N131   2.066       .  S
Cu129       N139   2.086       .  S
Cu130       N132   2.075       .  S
Cu130       N138   2.076       .  S
N131        N132   1.322   1_545  A
N131        C135   1.344       .  A
N132        C133   1.345       .  A
C133        C134   1.381   1_565  A
C133        H136   1.083       .  S
C134        C135   1.380       .  A
C134        C278   1.464       .  S
C135        H137   1.082       .  S
N138        N139   1.323       .  A
N138        C142   1.346       .  A
N139        C140   1.347       .  A
C140        C141   1.386       .  A
C140        H143   1.081       .  S
C141        C142   1.383       .  A
C142        H144   1.081       .  S
N145        N146   1.322       .  A
N145        C149   1.345       .  A
N145       Cu153   2.071       .  S
N146        C147   1.344       .  A
N146       Cu152   2.075       .  S
C147        C148   1.385       .  A
C147        H150   1.081       .  S
C148        C149   1.386       .  A
C148        C333   1.481       .  S
C149        H151   1.082       .  S
Cu152       N155   2.075       .  S
Cu153       N163   2.071       .  S
Cu154       N156   2.070       .  S
Cu154       N162   2.070       .  S
N155        N156   1.322       .  A
N155        C159   1.346       .  A
N156        C157   1.345       .  A
C157        C158   1.382       .  A
C157        H160   1.082       .  S
C158        C159   1.383       .  A
C159        H161   1.083       .  S
N162        N163   1.320       .  A
N162        C166   1.343       .  A
N163        C164   1.343       .  A
C164        C165   1.389       .  A
C164        H167   1.081       .  S
C165        C166   1.389       .  A
C165        C340   1.489       .  S
C166        H168   1.078       .  S
N169        N170   1.319       .  A
N169        C173   1.341       .  A
N169       Cu177   2.064   1_655  S
N170        C171   1.345       .  A
N170       Cu176   2.078       .  S
C171        C172   1.394       .  A
C171        H174   1.075       .  S
C172        C173   1.389       .  A
C172        C330   1.494       .  S
C173        H175   1.081       .  S
Cu176       N179   2.077   1_655  S
Cu177       N187   2.065       .  S
Cu178       N180   2.077       .  S
Cu178       N186   2.077       .  S
N179        N180   1.323       .  A
N179        C183   1.346   1_455  A
N180        C181   1.346       .  A
C181        C182   1.382       .  A
C181        H184   1.079       .  S
C182        C183   1.382   1_455  A
C183        H185   1.081       .  S
N186        N187   1.320       .  A
N186        C190   1.344       .  A
N187        C188   1.343       .  A
C188        C189   1.387       .  A
C188        H191   1.081       .  S
C189        C190   1.389       .  A
C189        C320   1.486       .  S
C190        H192   1.081       .  S
N193        N194   1.322       .  A
N193        C197   1.344       .  A
N193       Cu201   2.069       .  S
N194        C195   1.346       .  A
N194       Cu200   2.082       .  S
C195        C196   1.388       .  A
C195        H198   1.082       .  S
C196        C197   1.384       .  A
C196        C313   1.482       .  S
C197        H199   1.083       .  S
Cu200       N203   2.082       .  S
Cu201       N211   2.069       .  S
Cu202       N204   2.074       .  S
Cu202       N210   2.075       .  S
N203        N204   1.324       .  A
N203        C207   1.346       .  A
N204        C205   1.345       .  A
C205        C206   1.380       .  A
C205        H208   1.082       .  S
C206        C207   1.382       .  A
C207        H209   1.082       .  S
N210        N211   1.321       .  A
N210        C214   1.346       .  A
N211        C212   1.344       .  A
C212        C213   1.385       .  A
C212        H215   1.081       .  S
C213        C214   1.386       .  A
C213        C303   1.480       .  S
C214        H216   1.080       .  S
N217        N218   1.320       .  A
N217        C221   1.344       .  A
N217       Cu225   2.067   1_455  S
N218        C219   1.344       .  A
N218       Cu224   2.075       .  S
C219        C220   1.389       .  A
C219        H222   1.079       .  S
C220        C221   1.388       .  A
C220        C310   1.487       .  S
C221        H223   1.081       .  S
Cu224       N227   2.075       .  S
Cu225       N235   2.067       .  S
Cu226       N228   2.074       .  S
Cu226       N234   2.074       .  S
N227        N228   1.323   1_455  A
N227        C231   1.345       .  A
N228        C229   1.345       .  A
C229        C230   1.382   1_655  A
C229        H232   1.082       .  S
C230        C231   1.381       .  A
C231        H233   1.083       .  S
N234        N235   1.321       .  A
N234        C238   1.345       .  A
N235        C236   1.342       .  A
C236        C237   1.386       .  A
C236        H239   1.080       .  S
C237        C238   1.389       .  A
C237        C293   1.484       .  S
C238        H240   1.080       .  S
N241        N242   1.320       .  A
N241        C245   1.346       .  A
N241       Cu249   2.075       .  S
N242        C243   1.344       .  A
N242       Cu248   2.076       .  S
C243        C244   1.390       .  A
C243        H246   1.078       .  S
C244        C245   1.391       .  A
C244        C300   1.492       .  S
C245        H247   1.081       .  S
Cu248       N251   2.076       .  S
Cu249       N259   2.075   1_545  S
Cu250       N252   2.067       .  S
Cu250       N258   2.068       .  S
N251        N252   1.321   1_545  A
N251        C255   1.346       .  A
N252        C253   1.345       .  A
C253        C254   1.382   1_565  A
C253        H256   1.079       .  S
C254        C255   1.383       .  A
C255        H257   1.081       .  S
N258        N259   1.322       .  A
N258        C262   1.342       .  A
N259        C260   1.345       .  A
C260        C261   1.387       .  A
C260        H263   1.081       .  S
C261        C262   1.384       .  A
C261        C323   1.480       .  S
C262        H264   1.081       .  S
N265        N266   1.320       .  A
N265        C269   1.344       .  A
N265       Cu273   2.069       .  S
N266        C267   1.343       .  A
N266       Cu272   2.068       .  S
C267        C268   1.386       .  A
C267        H270   1.081       .  S
C268        C269   1.388       .  A
C268        C290   1.484       .  S
C269        H271   1.080       .  S
Cu272       N275   2.068       .  S
Cu273       N283   2.069   1_545  S
Cu274       N276   2.068       .  S
Cu274       N282   2.069       .  S
N275        N276   1.322   1_545  A
N275        C279   1.344       .  A
N276        C277   1.344       .  A
C277        C278   1.381   1_565  A
C277        H280   1.083       .  S
C278        C279   1.381       .  A
C279        H281   1.082       .  S
N282        N283   1.322       .  A
N282        C286   1.344       .  A
N283        C284   1.343       .  A
C284        C285   1.384       .  A
C284        H287   1.082       .  S
C285        C286   1.384       .  A
C285        C343   1.477       .  S
C286        H288   1.082       .  S
C289        C290   1.406       .  A
C289        C294   1.398       .  A
C289        H296   1.082       .  S
C290        C291   1.408       .  A
C291        C292   1.396       .  A
C291        F298   1.356       .  S
C292        C293   1.405       .  A
C292        H297   1.083       .  S
C293        C294   1.408       .  A
C294        F295   1.356       .  S
C299        C300   1.408       .  A
C299        C304   1.399       .  A
C299        H306   1.081       .  S
C300        C301   1.412       .  A
C301        C302   1.399       .  A
C301        F308   1.355       .  S
C302        C303   1.402       .  A
C302        H307   1.083       .  S
C303        C304   1.406       .  A
C304        F305   1.357       .  S
C309        C310   1.407       .  A
C309        C314   1.399       .  A
C309        H316   1.081       .  S
C310        C311   1.409       .  A
C311        C312   1.399       .  A
C311        F318   1.356       .  S
C312        C313   1.404       .  A
C312        H317   1.084       .  S
C313        C314   1.407       .  A
C314        F315   1.357       .  S
C319        C320   1.405       .  A
C319        C672   1.398       .  A
C319        H326   1.083       .  S
C320        C321   1.407       .  A
C321        C322   1.397       .  A
C321        F328   1.356       .  S
C322        C671   1.406       .  A
C322        H327   1.082       .  S
C323        C324   1.407       .  A
C323        C670   1.404       .  A
C324        C667   1.397       .  A
C324        F325   1.357       .  S
C329        C330   1.410       .  A
C329        C334   1.396       .  A
C329        H336   1.082       .  S
C330        C331   1.412       .  A
C331        C332   1.398       .  A
C331        F338   1.355       .  S
C332        C333   1.403       .  A
C332        H337   1.083       .  S
C333        C334   1.404       .  A
C334        F335   1.357       .  S
C339        C340   1.408       .  A
C339        C344   1.396       .  A
C339        H346   1.081       .  S
C340        C341   1.412       .  A
C341        C342   1.398       .  A
C341        F348   1.355       .  S
C342        C343   1.402       .  A
C342        H347   1.083       .  S
C343        C344   1.404       .  A
C344        F345   1.357       .  S
N349        N350   1.323       .  A
N349        C353   1.345       .  A
N349       Cu357   2.076       .  S
N350       Cu356   2.069       .  S
C351        C352   1.383       .  A
C351        H354   1.081       .  S
C352        C400   1.472       .  S
C353        H355   1.081       .  S
Cu356       N359   2.068       .  S
Cu357       N367   2.076       .  S
Cu358       N360   2.068       .  S
Cu358       N366   2.068       .  S
N359        N360   1.322       .  A
N359        C363   1.344       .  A
N360        C361   1.345       .  A
C361        C362   1.381       .  A
C361        H364   1.081   1_455  S
C362        C363   1.381       .  A
C362        C530   1.465       .  S
C363        H365   1.082       .  S
N366        N367   1.322       .  A
N366        C370   1.344       .  A
N367        C368   1.346       .  A
C368        C369   1.384       .  A
C368        H371   1.082       .  S
C369        C370   1.381       .  A
C369        C417   1.470       .  S
C370        H372   1.083       .  S
N373        N374   1.323       .  A
N373        C377   1.346       .  A
N373       Cu381   2.088       .  S
N374        C375   1.347       .  A
N374       Cu380   2.074       .  S
C375        C376   1.384       .  A
C375        H378   1.081       .  S
C376        C377   1.385       .  A
C376        C424   1.476       .  S
C377        H379   1.081       .  S
Cu380       N383   2.074       .  S
Cu381       N391   2.088       .  S
Cu382       N384   2.080       .  S
Cu382       N390   2.080       .  S
N383        N384   1.324       .  A
N383        C387   1.346       .  A
N384        C385   1.345       .  A
C385        C386   1.381       .  A
C385        H388   1.082       .  S
C386        C387   1.380       .  A
C386        C506   1.465       .  S
C387        H389   1.082       .  S
N390        N391   1.322       .  A
N390        C394   1.347       .  A
N391        C392   1.348       .  A
C392        C393   1.387       .  A
C392        H395   1.080       .  S
C393        C394   1.385       .  A
C393        C441   1.479       .  S
C394        H396   1.083       .  S
N397        N398   1.322       .  A
N397        C401   1.347       .  A
N397       Cu405   2.081       .  S
N398        C399   1.344       .  A
N398       Cu404   2.069       .  S
C399        C400   1.381       .  A
C399        H402   1.081       .  S
C400        C401   1.385       .  A
C401        H403   1.081       .  S
Cu404       N407   2.068       .  S
Cu405       N415   2.082       .  S
Cu406       N408   2.067       .  S
Cu406       N414   2.068       .  S
N407        N408   1.322       .  A
N407        C411   1.345       .  A
N408        C409   1.344   1_455  A
C409        C410   1.380   1_655  A
C409        H412   1.082       .  S
C410        C411   1.380       .  A
C410        C578   1.463       .  S
C411        H413   1.083       .  S
N414        N415   1.323       .  A
N414        C418   1.345       .  A
N415        C416   1.345       .  A
C416        C417   1.384       .  A
C416        H419   1.082       .  S
C417        C418   1.381       .  A
C418        H420   1.083       .  S
N421        N422   1.322       .  A
N421        C425   1.349       .  A
N421       Cu429   2.090       .  S
N422       Cu428   2.074       .  S
C423        C424   1.383       .  A
C423        H426   1.081       .  S
C425        H427   1.080       .  S
Cu428       N431   2.075       .  S
Cu429       N439   2.091       .  S
Cu430       N432   2.084       .  S
Cu430       N438   2.085       .  S
N431        N432   1.323       .  A
N431        C435   1.345       .  A
N432        C433   1.348       .  A
C433        C434   1.383       .  A
C433        H436   1.081       .  S
C434        C435   1.382       .  A
C434        C554   1.469       .  S
C435        H437   1.083       .  S
N438        N439   1.324       .  A
N438        C442   1.347       .  A
N439        C440   1.348       .  A
C440        C441   1.386       .  A
C440        H443   1.081       .  S
C441        C442   1.385       .  A
C442        H444   1.083       .  S
N445        N446   1.322   1_565  A
N445        C449   1.344       .  A
N445       Cu453   2.074   1_556  S
N446        C447   1.349       .  A
N446       Cu452   2.084       .  S
C447        C448   1.385       .  A
C447        H450   1.081       .  S
C448        C449   1.382   1_545  A
C448        C602   1.473       .  S
C449        H451   1.081   1_556  S
Cu452       N455   2.084       .  S
Cu454       N456   2.081   1_565  S
Cu454       N462   2.080   1_556  S
N455        N456   1.324       .  A
N455        C459   1.346       .  A
N456        C457   1.346       .  A
C457        C458   1.384       .  A
C457        H460   1.082   1_545  S
C458        C459   1.383       .  A
C458        C472   1.473       .  S
C459        H461   1.083       .  S
N463        C464   1.345       .  A
C464        C465   1.382       .  A
C464        H467   1.081       .  S
C465        C466   1.386       .  A
C465        C489   1.474       .  S
C466        H468   1.081       .  S
N469        N470   1.323       .  A
N469        C473   1.346       .  A
N469       Cu477   2.085       .  S
N470        C471   1.345       .  A
N470       Cu476   2.069       .  S
C471        C472   1.382       .  A
C471        H474   1.082       .  S
C472        C473   1.385       .  A
C473        H475   1.082       .  S
Cu476       N479   2.068       .  S
Cu477       N487   2.085       .  S
Cu478       N480   2.074       .  S
Cu478       N486   2.074       .  S
N479        N480   1.322   1_545  A
N479        C483   1.344       .  A
N480        C481   1.345       .  A
C481        C482   1.381       .  A
C481        H484   1.083       .  S
C482        C483   1.380   1_565  A
C482        C626   1.464   1_565  S
C483        H485   1.082       .  S
N486        N487   1.323   1_565  A
N486        C490   1.346       .  A
N487        C488   1.347       .  A
C488        C489   1.386       .  A
C488        H491   1.081       .  S
C489        C490   1.383   1_545  A
C490        H492   1.081       .  S
N493        N494   1.321       .  A
N493        C497   1.346       .  A
N493       Cu501   2.086       .  S
N494        C495   1.343       .  A
N494       Cu500   2.065       .  S
C495        C496   1.386       .  A
C495        H498   1.081       .  S
C496        C497   1.391       .  A
C496        C681   1.488       .  S
C497        H499   1.081       .  S
Cu500       N503   2.065       .  S
Cu501       N511   2.086       .  S
Cu502       N504   2.080       .  S
Cu502       N510   2.081       .  S
N503        N504   1.322       .  A
N503        C507   1.344       .  A
N504        C505   1.346       .  A
C505        C506   1.383       .  A
C505        H508   1.083       .  S
C506        C507   1.379       .  A
C507        H509   1.082       .  S
N510        N511   1.322       .  A
N510        C514   1.345       .  A
N511        C512   1.347       .  A
C512        C513   1.388       .  A
C512        H515   1.082       .  S
C513        C514   1.388       .  A
C513        C688   1.488       .  S
C514        H516   1.080       .  S
N517        N518   1.321       .  A
N517        C521   1.342       .  A
N517       Cu525   2.063   1_655  S
N518        C519   1.346       .  A
N518       Cu524   2.080       .  S
C519        C520   1.388       .  A
C519        H522   1.081       .  S
C520        C521   1.384       .  A
C520        C678   1.482       .  S
C521        H523   1.081       .  S
Cu524       N527   2.080       .  S
Cu525       N535   2.063       .  S
Cu526       N528   2.065       .  S
Cu526       N534   2.065       .  S
N527        N528   1.323   1_655  A
N527        C531   1.346       .  A
N528        C529   1.344       .  A
C529        C530   1.379       .  A
C529        H532   1.080       .  S
C530        C531   1.383   1_455  A
C531        H533   1.081       .  S
N534        N535   1.319       .  A
N534        C538   1.343       .  A
N535        C536   1.343       .  A
C536        C537   1.386       .  A
C536        H539   1.081       .  S
C537        C538   1.387       .  A
C537        C668   1.482       .  S
C538        H540   1.081       .  S
N541        N542   1.324       .  A
N541        C545   1.346       .  A
N541       Cu549   2.079       .  S
N542        C543   1.346       .  A
N542       Cu548   2.086       .  S
C543        C544   1.387       .  A
C543        H546   1.082       .  S
C544        C545   1.386       .  A
C544        C661   1.484       .  S
C545        H547   1.080       .  S
Cu548       N551   2.086       .  S
Cu549       N559   2.079       .  S
Cu550       N552   2.066       .  S
Cu550       N558   2.066       .  S
N551        N552   1.322       .  A
N551        C555   1.349       .  A
N552        C553   1.343       .  A
C553        C554   1.380       .  A
C553        H556   1.082       .  S
C554        C555   1.385       .  A
C555        H557   1.082       .  S
N558        N559   1.319       .  A
N558        C562   1.342       .  A
N559        C560   1.347       .  A
C560        C561   1.392       .  A
C560        H563   1.080       .  S
C561        C562   1.387       .  A
C561        C651   1.490       .  S
C562        H564   1.081       .  S
N565        N566   1.321       .  A
N565        C569   1.345       .  A
N565       Cu573   2.075       .  S
N566        C567   1.343       .  A
N566       Cu572   2.071       .  S
C567        C568   1.388       .  A
C567        H570   1.081       .  S
C568        C569   1.390       .  A
C568        C658   1.490       .  S
C569        H571   1.079       .  S
Cu572       N575   2.070       .  S
Cu573       N583   2.074   1_455  S
Cu574       N576   2.068       .  S
Cu574       N582   2.068       .  S
N575        N576   1.322   1_455  A
N575        C579   1.345       .  A
N576        C577   1.344       .  A
C577        C578   1.380   1_655  A
C577        H580   1.082       .  S
C578        C579   1.381       .  A
C579        H581   1.083       .  S
N582        N583   1.320       .  A
N582        C586   1.344       .  A
N583        C584   1.343       .  A
C584        C585   1.390       .  A
C584        H587   1.080       .  S
C585        C586   1.389       .  A
C585        C641   1.489       .  S
C586        H588   1.080       .  S
N589        N590   1.323       .  A
N589        C593   1.343       .  A
N589       Cu597   2.065       .  S
N590        C591   1.347       .  A
N590       Cu596   2.092       .  S
C591        C592   1.390       .  A
C591        H594   1.081       .  S
C592        C593   1.382       .  A
C592        C648   1.483       .  S
C593        H595   1.083       .  S
Cu596       N599   2.091       .  S
Cu597       N607   2.064   1_545  S
Cu598       N600   2.073   1_565  S
Cu598       N606   2.073   1_556  S
N599        N600   1.323       .  A
N599        C603   1.350       .  A
N600        C601   1.344   1_545  A
C601        C602   1.381   1_565  A
C601        H604   1.080   1_556  S
C602        C603   1.386       .  A
C603        H605   1.081       .  S
N606        N607   1.319   1_554  A
N606        C610   1.343       .  A
N607        C608   1.344       .  A
C608        C609   1.390   1_556  A
C608        H611   1.080       .  S
C609        C610   1.390       .  A
C609        C671   1.490       .  S
C610        H612   1.081       .  S
N613        N614   1.321       .  A
N613        C617   1.342       .  A
N613       Cu621   2.067       .  S
N614        C615   1.345       .  A
N614       Cu620   2.069       .  S
C615        C616   1.386       .  A
C615        H618   1.082       .  S
C616        C617   1.385       .  A
C616        C638   1.480       .  S
C617        H619   1.081       .  S
Cu620       N623   2.068       .  S
Cu621       N631   2.068   1_545  S
Cu622       N624   2.078       .  S
Cu622       N630   2.078       .  S
N623        N624   1.323   1_545  A
N623        C627   1.344       .  A
N624        C625   1.346       .  A
C625        C626   1.381   1_565  A
C625        H628   1.083       .  S
C626        C627   1.380       .  A
C627        H629   1.082       .  S
N630        N631   1.320       .  A
N630        C634   1.344       .  A
N631        C632   1.346       .  A
C632        C633   1.387       .  A
C632        H635   1.081       .  S
C633        C634   1.388       .  A
C633        C691   1.485       .  S
C634        H636   1.081       .  S
C637        C638   1.403       .  A
C637        C642   1.398       .  A
C637        H644   1.084       .  S
C638        C639   1.406       .  A
C639        C640   1.395       .  A
C639        F646   1.357       .  S
C640        C641   1.406       .  A
C640        H645   1.081       .  S
C641        C642   1.411       .  A
C642        F643   1.356       .  S
C647        C648   1.405       .  A
C647        C652   1.400       .  A
C647        H654   1.084       .  S
C648        C649   1.405       .  A
C649        C650   1.397       .  A
C649        F656   1.357       .  S
C650        C651   1.408       .  A
C650        H655   1.083       .  S
C651        C652   1.410       .  A
C652        F653   1.356       .  S
C657        C658   1.407       .  A
C657        C662   1.399       .  A
C657        H664   1.082       .  S
C658        C659   1.411       .  A
C659        C660   1.398       .  A
C659        F666   1.356       .  S
C660        C661   1.403       .  A
C660        H665   1.084       .  S
C661        C662   1.407       .  A
C662        F663   1.357       .  S
C667        C668   1.406       .  A
C667        H674   1.082       .  S
C668        C669   1.408       .  A
C669        C670   1.396       .  A
C669        F676   1.356       .  S
C670        H675   1.082       .  S
C671        C672   1.411       .  A
C672        F673   1.356       .  S
C677        C678   1.405       .  A
C677        C682   1.398       .  A
C677        H684   1.082       .  S
C678        C679   1.405       .  A
C679        C680   1.399       .  A
C679        F686   1.357       .  S
C680        C681   1.408       .  A
C680        H685   1.082       .  S
C681        C682   1.409       .  A
C682        F683   1.356       .  S
C687        C688   1.406       .  A
C687        C692   1.402       .  A
C687        H694   1.083       .  S
C688        C689   1.409       .  A
C689        C690   1.397       .  A
C689        F696   1.356       .  S
C690        C691   1.404       .  A
C690        H695   1.082       .  S
C691        C692   1.409       .  A
C692        F693   1.357       .  S
