geometry optimzed in LAMMPS
_audit_creation_date              2020-11-30 
_audit_creation_method            'lammps2cif' 
_symmetry_space_group_name_H-M    'P1' 
_symmetry_Int_Tables_number       1 
_symmetry_cell_setting            triclinic 
loop_ 
_symmetry_equiv_pos_as_xyz 
  x,y,z 
_cell_length_a                    53.6669935 
_cell_length_b                    54.25249409569042 
_cell_length_c                    41.694147236168554 
_cell_angle_alpha                 89.93662592115449 
_cell_angle_beta                  90.18208251486234 
_cell_angle_gamma                 123.94935663857139 
loop_ 
_atom_site_label 
_atom_site_type_symbol 
_atom_site_fract_x 
_atom_site_fract_y 
_atom_site_fract_z 
_atom_site_charge 
In1        In  0.40567287  0.31736056  0.17120898     1.36900
C2          C  0.40238549  0.31441018  0.23505294     0.76900
O3          O  0.44899333  0.32026354  0.17449930    -0.61500
O4          O  0.44972708  0.35613094  0.15292907    -0.52500
C5          C  0.38382687  0.27046453  0.13330922     0.69600
O6          O  0.38566872  0.26951793  0.16330014    -0.47300
C7          C  0.37297320  0.33966343  0.16141900     0.74300
O8          O  0.38731502  0.29183114  0.21744931    -0.59200
O9          O  0.39987314  0.35274117  0.15245323    -0.49300
O10         O  0.41920503  0.33842352  0.22011514    -0.55600
C11         C  0.46444143  0.34564570  0.16192547     0.84500
O12         O  0.39347931  0.29587068  0.12212656    -0.57500
O13         O  0.36219416  0.31439405  0.17354839    -0.60800
In14       In  0.33145911  0.38473104  0.33128290     1.36900
C15         C  0.32884502  0.38390204  0.26711576     0.76900
O16         O  0.33438391  0.42763615  0.32735961    -0.61500
O17         O  0.37091392  0.42865058  0.34884565    -0.52500
C18         C  0.28623103  0.36270535  0.37285975     0.69600
O19         O  0.28242318  0.35460360  0.34393920    -0.47300
C20         C  0.35513832  0.35314846  0.34048786     0.74300
O21         O  0.30574599  0.37401902  0.28418825    -0.59200
O22         O  0.36792275  0.37964316  0.34979389    -0.49300
O23         O  0.35284655  0.39446616  0.28277668    -0.55600
C24         C  0.36019262  0.44311453  0.33984135     0.84500
O25         O  0.31313366  0.38148751  0.38063587    -0.57500
O26         O  0.32946990  0.34219141  0.32844562    -0.60800
In27       In  0.05602578  0.39703516  0.16926637     1.36900
C28         C  0.05303266  0.39243794  0.23246793     0.76900
O29         O  0.09868795  0.44149164  0.17682739    -0.61500
O30         O  0.06404968  0.43957101  0.14984987    -0.52500
C31         C  0.08112627  0.37723046  0.13206023     0.69600
O32         O  0.08596936  0.38116691  0.16171126    -0.47300
C33         C  0.49721354  0.36274976  0.16073622     0.74300
O34         O  0.06524530  0.38271209  0.21570314    -0.59200
O35         O  0.01283477  0.38939145  0.15145636    -0.49300
O36         O  0.04248814  0.40457620  0.21699279    -0.55600
C37         C  0.08966581  0.45551334  0.16250207     0.84500
O38         O  0.06354998  0.38370532  0.12106061    -0.57500
O39         O  0.01193263  0.35282899  0.17158997    -0.60800
In40       In  0.33044801  0.38319054  0.16778371     1.36900
C41         C  0.32850558  0.38321709  0.23182282     0.76900
O42         O  0.33075177  0.34208187  0.17266982    -0.61500
O43         O  0.36801461  0.37991379  0.15024388    -0.52500
C44         C  0.28576840  0.35878837  0.12473482     0.69600
O45         O  0.28166454  0.35174019  0.15399632    -0.47300
C46         C  0.35852862  0.44168836  0.16223949     0.74300
O47         O  0.30524648  0.37368201  0.21486329    -0.59200
O48         O  0.36863280  0.42769948  0.15008615    -0.49300
O49         O  0.35210169  0.39229481  0.21607932    -0.55600
C50         C  0.35649862  0.35389705  0.16060115     0.84500
O51         O  0.31266704  0.37805677  0.11754267    -0.57500
O52         O  0.33304331  0.42559623  0.17509555    -0.60800
In53       In  0.06208805  0.11386568  0.17341691     1.36900
C54         C  0.06344514  0.11301685  0.23716052     0.76900
O55         O  0.01828382  0.10966757  0.17870620    -0.61500
O56         O  0.01822942  0.07613433  0.15250267    -0.52500
C57         C  0.08542627  0.16221232  0.13679957     0.69600
O58         O  0.08241749  0.16237633  0.16670325    -0.47300
C59         C  0.09394742  0.09080919  0.16503093     0.74300
O60         O  0.07879655  0.13675827  0.22131884    -0.59200
O61         O  0.06773084  0.07879199  0.15402790    -0.49300
O62         O  0.04746549  0.08994055  0.22049674    -0.55600
C63         C  0.50306240  0.08514165  0.16423869     0.84500
O64         O  0.07678790  0.13713527  0.12535387    -0.57500
O65         O  0.10471339  0.11566707  0.17823924    -0.60800
In66       In  0.13447947  0.04554535  0.17177123     1.36900
C67         C  0.13541348  0.04247538  0.23562003     0.76900
O68         O  0.13510175  0.08700604  0.17761202    -0.61500
O69         O  0.09762297  0.04985524  0.15430843    -0.52500
C70         C  0.17880037  0.06917843  0.12898735     0.69600
O71         O  0.18313546  0.07680074  0.15811108    -0.47300
C72         C  0.10668625  0.48783706  0.16304896     0.74300
O73         O  0.15915462  0.05403200  0.21918329    -0.59200
O74         O  0.09587781  0.50199047  0.15319115    -0.49300
O75         O  0.11185753  0.03296396  0.21948472    -0.55600
C76         C  0.10961054  0.07583656  0.16495267     0.84500
O77         O  0.15186767  0.04998795  0.12171507    -0.57500
O78         O  0.13242631  0.50343632  0.17564626    -0.60800
In79       In  0.41102528  0.03256802  0.17399306     1.36900
C80         C  0.41062815  0.03247184  0.23742872     0.76900
O81         O  0.36790959  0.48786347  0.18031577    -0.61500
O82         O  0.40173390  0.49049858  0.15129478    -0.52500
C83         C  0.38676457  0.05598174  0.14127331     0.69600
O84         O  0.39383328  0.06133922  0.17037782    -0.47300
C85         C  0.47014351  0.06733295  0.16409554     0.74300
O86         O  0.39534112  0.03891939  0.22098489    -0.59200
O87         O  0.45436943  0.04080497  0.15446086    -0.49300
O88         O  0.42561096  0.02534859  0.22150974    -0.55600
C89         C  0.37618628  0.47419021  0.16395209     0.84500
O90         O  0.39301066  0.03914453  0.12813498    -0.57500
O91         O  0.45547566  0.07659959  0.17639026    -0.60800
In92       In  0.39951446  0.31132369  0.33400511     1.36900
C93         C  0.40073354  0.31301649  0.27015036     0.76900
O94         O  0.35831411  0.31197740  0.32820344    -0.61500
O95         O  0.39614088  0.34848801  0.35188605    -0.52500
C96         C  0.37241709  0.26242732  0.37067748     0.69600
O97         O  0.37955597  0.26292591  0.34183927    -0.47300
C98         C  0.45784404  0.33695752  0.34329219     0.74300
O99         O  0.38261021  0.28955667  0.28549037    -0.59200
O100        O  0.44385121  0.34683606  0.35618706    -0.49300
O101        O  0.41763815  0.33542876  0.28736521    -0.55600
C102        C  0.36996258  0.33719925  0.34094071     0.84500
O103        O  0.37994361  0.28746772  0.38119315    -0.57500
O104        O  0.44159772  0.31270324  0.32863476    -0.60800
In105      In  0.41199220  0.03444724  0.33577770     1.36900
C106        C  0.41111084  0.03338309  0.27234016     0.76900
O107        O  0.45743817  0.07733559  0.33210747    -0.61500
O108        O  0.45427120  0.04175159  0.35740005    -0.52500
C109        C  0.38978147  0.05848888  0.37145972     0.69600
O110        O  0.39721717  0.06535027  0.34261036    -0.47300
C111        C  0.37736274  0.47563118  0.34146229     0.74300
O112        O  0.39558554  0.03977476  0.28839269    -0.59200
O113        O  0.40317882  0.49118017  0.35390035    -0.49300
O114        O  0.42721272  0.02787942  0.28864563    -0.55600
C115        C  0.47107326  0.06765273  0.34626572     0.84500
O116        O  0.39401561  0.03942006  0.38241749    -0.57500
O117        O  0.36832292  0.49025619  0.32845263    -0.60800
In118      In  0.06255383  0.10988738  0.33603271     1.36900
C119        C  0.06372781  0.11206713  0.27222558     0.76900
O120        O  0.10340645  0.10861637  0.33005626    -0.61500
O121        O  0.06541370  0.07216994  0.35333800    -0.52500
C122        C  0.09041544  0.15855709  0.37268314     0.69600
O123        O  0.08100102  0.15753322  0.34475144    -0.47300
C124        C  0.50396673  0.08405143  0.34638502     0.74300
O125        O  0.08131473  0.13441809  0.28930000    -0.59200
O126        O  0.01802858  0.07336336  0.35707418    -0.49300
O127        O  0.04606441  0.08865615  0.28767644    -0.55600
C128        C  0.09160809  0.08334724  0.34267202     0.84500
O129        O  0.08456470  0.13395245  0.38278406    -0.57500
O130        O  0.02019964  0.10886937  0.33284714    -0.60800
In131      In  0.13056794  0.03619490  0.33461895     1.36900
C132        C  0.13447960  0.04010560  0.27076502     0.76900
O133        O  0.12717131  0.49345388  0.32702905    -0.61500
O134        O  0.09150485  0.49191307  0.35118674    -0.52500
C135        C  0.17453541  0.05676380  0.37802442     0.69600
O136        O  0.17937831  0.06253637  0.34853562    -0.47300
C137        C  0.10642965  0.06738379  0.34269017     0.74300
O138        O  0.15740726  0.05002373  0.28831889    -0.59200
O139        O  0.09309041  0.04048265  0.35064346    -0.49300
O140        O  0.11004969  0.02794982  0.28579073    -0.55600
C141        C  0.10164392  0.47768985  0.33983773     0.84500
O142        O  0.14719678  0.04064118  0.38552213    -0.57500
O143        O  0.13283324  0.07889526  0.33265890    -0.60800
In144      In  0.04923929  0.38697910  0.33055516     1.36900
C145        C  0.05133700  0.39003473  0.26727203     0.76900
O146        O  0.00377050  0.34489678  0.32537522    -0.61500
O147        O  0.00760689  0.37902818  0.35429462    -0.52500
C148        C  0.07124123  0.36202685  0.36451434     0.69600
O149        O  0.06405893  0.35599216  0.33547745    -0.47300
C150        C  0.08408573  0.44524746  0.33931948     0.74300
O151        O  0.06523936  0.38160166  0.28322444    -0.59200
O152        O  0.05775309  0.42949987  0.35022096    -0.49300
O153        O  0.03605225  0.39652183  0.28359100    -0.55600
C154        C  0.49059575  0.35370869  0.34187477     0.84500
O155        O  0.06659002  0.38042406  0.37650511    -0.57500
O156        O  0.09334225  0.43101620  0.32592362    -0.60800
C157        C  0.33306502  0.11153065  0.07713610     0.85800
C158        C  0.29993165  0.09956349  0.08318545    -0.54400
C159        C  0.28935359  0.11419372  0.06723812     0.08700
C160        C  0.31386698  0.14027080  0.04651554     0.19700
C161        C  0.33316403  0.10935118  0.04069204    -0.55100
C162        C  0.32460018  0.12529918  0.02396180     0.08800
C163        C  0.35043473  0.14437122  0.08509041    -0.54700
C164        C  0.34042676  0.15943362  0.07014121     0.09400
H165        H  0.28519510  0.07984243  0.09720147     0.13900
H166        H  0.30642998  0.15281306  0.03343100    -0.00300
H167        H  0.33799934  0.09439399  0.02960924     0.14200
H168        H  0.36783385  0.15449578  0.10342345     0.14000
C169        C  0.33351860  0.11120448  0.43589503     0.85800
C170        C  0.34304445  0.14174787  0.42357413    -0.54400
C171        C  0.32977610  0.15391612  0.43845282     0.08700
C172        C  0.30714476  0.13364541  0.46504548     0.19700
C173        C  0.33891844  0.11504392  0.47160389    -0.55100
C174        C  0.32452788  0.12539453  0.48780901     0.08800
C175        C  0.29900766  0.09324883  0.43132307    -0.54700
C176        C  0.28476103  0.10478417  0.44633896     0.09400
H177        H  0.35658196  0.15170436  0.40218958     0.13900
H178        H  0.29655676  0.14318461  0.47810105    -0.00300
H179        H  0.35352492  0.10955651  0.48279461     0.14200
H180        H  0.28725977  0.07439783  0.41505267     0.14000
C181        C  0.13322974  0.32032183  0.06978254     0.85800
C182        C  0.16627816  0.33148641  0.07617845    -0.54400
C183        C  0.17553342  0.31506327  0.06165441     0.08700
C184        C  0.14977376  0.28763599  0.04347051     0.19700
C185        C  0.13031839  0.31798661  0.03370737    -0.55100
C186        C  0.13818092  0.30072563  0.01912323     0.08800
C187        C  0.11639350  0.28848987  0.08252013    -0.54700
C188        C  0.12477098  0.27129826  0.06933055     0.09400
H189        H  0.18078897  0.34939377  0.09252228     0.13900
H190        H  0.15619812  0.27362784  0.03194256    -0.00300
H191        H  0.12383516  0.33109202  0.02111309     0.14200
H192        H  0.10071186  0.28082493  0.10237586     0.14000
C193        C  0.12862899  0.31105099  0.43002275     0.85800
C194        C  0.11917866  0.28025720  0.41898324    -0.54400
C195        C  0.13244096  0.26862617  0.43512764     0.08700
C196        C  0.15496917  0.28967681  0.46152797     0.19700
C197        C  0.12289664  0.30806219  0.46561730    -0.55100
C198        C  0.13739333  0.29838090  0.48305820     0.08800
C199        C  0.16308256  0.32892034  0.42585498    -0.54700
C200        C  0.17732906  0.31801232  0.44215799     0.09400
H201        H  0.10556354  0.26959865  0.39771955     0.13900
H202        H  0.16558605  0.28062587  0.47558711    -0.00300
H203        H  0.10804089  0.31357884  0.47565421     0.14200
H204        H  0.17475067  0.34691824  0.40861892     0.14000
C205        C  0.08223488  0.30561762  0.40308112    -0.02500
C206        C  0.11254654  0.32412259  0.41407718     0.07200
C207        C  0.12558087  0.35529673  0.41507157    -0.02600
C208        C  0.11231537  0.36762707  0.39829304    -0.02600
C209        C  0.08465245  0.34899869  0.38270396     0.07300
C210        C  0.06925798  0.31801313  0.38572450    -0.02800
Br211      Br  0.02929349  0.29255992  0.36796337    -0.01400
Br212      Br  0.05528910  0.26491012  0.41744987    -0.01500
Br213      Br  0.13259259  0.41035553  0.39603867    -0.01400
Br214      Br  0.15819154  0.38138628  0.44378633    -0.01400
C215        C  0.23124461  0.06174270  0.43668282    -0.02500
C216        C  0.25230622  0.09289641  0.43868057     0.07200
C217        C  0.24304921  0.11140241  0.42734642    -0.02600
C218        C  0.21722748  0.09928063  0.40779513    -0.02600
C219        C  0.19914126  0.06861991  0.40174101     0.07300
C220        C  0.20492291  0.04965349  0.41808964    -0.02800
Br221      Br  0.17768259  0.00716042  0.41353802    -0.01400
Br222      Br  0.23748736  0.03542004  0.46088194    -0.01500
Br223      Br  0.20598153  0.12444971  0.38920743    -0.01400
Br224      Br  0.26269476  0.15244140  0.43956494    -0.01400
C225        C  0.13629786  0.24088326  0.38964170    -0.02500
C226        C  0.12909911  0.24146317  0.42210189     0.07200
C227        C  0.11447724  0.21505287  0.43998932    -0.02600
C228        C  0.10259603  0.18752296  0.42452295    -0.02600
C229        C  0.10698991  0.18671616  0.39119131     0.07300
C230        C  0.12600404  0.21368695  0.37456930    -0.02800
Br231      Br  0.13879160  0.21380960  0.33118773    -0.01400
Br232      Br  0.16000152  0.27733238  0.36531491    -0.03100
Br233      Br  0.07843918  0.15140315  0.44890257    -0.01400
Br234      Br  0.11000947  0.21670171  0.48537980    -0.01400
C235        C  0.35010934  0.05382640  0.40746638    -0.02500
C236        C  0.37708892  0.07187858  0.39053241     0.07200
C237        C  0.39244005  0.10296773  0.39250198    -0.02600
C238        C  0.37980556  0.11589412  0.40943467    -0.02600
C239        C  0.34979128  0.09774384  0.42119791     0.07300
C240        C  0.33720734  0.06674567  0.42385125    -0.02800
Br241      Br  0.30567742  0.04210841  0.45408700    -0.01400
Br242      Br  0.33003793  0.01112308  0.40734907    -0.01500
Br243      Br  0.40701929  0.15701483  0.42238792    -0.01400
Br244      Br  0.43198274  0.12796159  0.37381178    -0.01400
C245        C  0.32591362  0.18023990  0.39118407    -0.02500
C246        C  0.33318536  0.18072988  0.42390108     0.07200
C247        C  0.34849141  0.20786996  0.44047488    -0.02600
C248        C  0.36132591  0.23486198  0.42353207    -0.02600
C249        C  0.35651273  0.23457216  0.39002143     0.07300
C250        C  0.33681584  0.20696131  0.37458022    -0.02800
Br251      Br  0.32381569  0.20510758  0.33078365    -0.01400
Br252      Br  0.30089631  0.14279708  0.36881454    -0.01500
Br253      Br  0.38768228  0.27159910  0.44635036    -0.01400
Br254      Br  0.35200540  0.20785637  0.48628929    -0.01400
C255        C  0.38622309  0.08661332  0.09722296    -0.02500
C256        C  0.37248807  0.06884004  0.12438948     0.07200
C257        C  0.34750981  0.06678607  0.13816408    -0.02600
C258        C  0.33618061  0.08244600  0.12479392    -0.02600
C259        C  0.34702503  0.09697555  0.09464618     0.07300
C260        C  0.37420401  0.10129072  0.08285338    -0.02800
Br261      Br  0.39842915  0.13059385  0.05018974    -0.01400
Br262      Br  0.42308602  0.09271041  0.08119857    -0.01500
Br263      Br  0.31231160  0.08966336  0.15298814    -0.01400
Br264      Br  0.32848203  0.04217928  0.17564504    -0.01400
C265        C  0.22215459  0.11155244  0.09915908    -0.02500
C266        C  0.20349400  0.08088160  0.10558197     0.07200
C267        C  0.20897625  0.06134048  0.09007912    -0.02600
C268        C  0.23514771  0.07279607  0.07176905    -0.02600
C269        C  0.25700082  0.10377414  0.07067467     0.07300
C270        C  0.24854107  0.12302587  0.08085674    -0.02800
Br271      Br  0.27143794  0.16443641  0.06923311    -0.01400
Br272      Br  0.21140343  0.13762755  0.11572013    -0.01500
Br273      Br  0.24147271  0.04594378  0.04855309    -0.01400
Br274      Br  0.18261215  0.01899205  0.09679079    -0.01400
C275        C  0.08133755  0.18897274  0.08996012    -0.02500
C276        C  0.09727590  0.18931766  0.11719216     0.07200
C277        C  0.12223501  0.21658507  0.12842342    -0.02600
C278        C  0.13008907  0.24333380  0.11380637    -0.02600
C279        C  0.11563050  0.24289867  0.08520307     0.07300
C280        C  0.09019818  0.21580322  0.07442400    -0.02800
Br281      Br  0.06442424  0.21618384  0.04238589    -0.01400
Br282      Br  0.04603904  0.15217862  0.07516919    -0.01500
Br283      Br  0.15831432  0.28032565  0.13549130    -0.01400
Br284      Br  0.14689288  0.21742052  0.16286598    -0.01400
C285        C  0.25744288  0.36525023  0.08137439    -0.02500
C286        C  0.26086771  0.34623281  0.10113776     0.07200
C287        C  0.23978647  0.31524998  0.09877976    -0.02600
C288        C  0.21364463  0.30376249  0.07989958    -0.02600
C289        C  0.20716245  0.32345091  0.06616063     0.07300
C290        C  0.23077221  0.35373187  0.06373464    -0.02800
Br291      Br  0.22651170  0.37933805  0.03574473    -0.01400
Br292      Br  0.28756687  0.40750533  0.08075036    -0.01500
Br293      Br  0.18898066  0.26171261  0.07143676    -0.01400
Br294      Br  0.24669172  0.28854688  0.12148078    -0.01400
C295        C  0.07579128  0.33735273  0.09743694    -0.02500
C296        C  0.09441497  0.36504875  0.11231258     0.07200
C297        C  0.12567455  0.38098496  0.10834538    -0.02600
C298        C  0.13848739  0.36808855  0.09171264    -0.02600
C299        C  0.12030425  0.33765917  0.08257023     0.07300
C300        C  0.08851474  0.32387708  0.08202746    -0.02800
Br301      Br  0.06163780  0.28793181  0.05774449    -0.01400
Br302      Br  0.03263840  0.31756104  0.09888804    -0.01500
Br303      Br  0.17796361  0.39495200  0.07405850    -0.01400
Br304      Br  0.15056623  0.42153426  0.12345909    -0.01400
C305        C  0.23067021  0.36026616  0.43073303    -0.02500
C306        C  0.20945913  0.32928819  0.43426793     0.07200
C307        C  0.21768814  0.31001437  0.42312954    -0.02600
C308        C  0.24221230  0.32085019  0.40210740    -0.02600
C309        C  0.26114945  0.35143193  0.39568949     0.07300
C310        C  0.25642346  0.37129124  0.41169697    -0.02800
Br311      Br  0.28390653  0.41364196  0.40557033    -0.01400
Br312      Br  0.22536015  0.38801296  0.45298952    -0.01500
Br313      Br  0.25006766  0.29372162  0.38209696    -0.01400
Br314      Br  0.19906896  0.26998107  0.43853052    -0.01400
C315        C  0.38710568  0.24225161  0.08764679    -0.02500
C316        C  0.37102573  0.24345470  0.11365343     0.07200
C317        C  0.34461480  0.21731816  0.12440702    -0.02600
C318        C  0.33541145  0.18993919  0.11080782    -0.02600
C319        C  0.34984880  0.18876227  0.08317497     0.07300
C320        C  0.37665279  0.21480152  0.07263457    -0.02800
Br321      Br  0.40177326  0.21192398  0.04190790    -0.01400
Br322      Br  0.42477931  0.27744581  0.07452960    -0.01500
Br323      Br  0.30700877  0.15438514  0.13440688    -0.01400
Br324      Br  0.32059353  0.21873145  0.15794432    -0.01400
In325      In  0.40567297  0.31736053  0.67120893     1.36900
C326        C  0.40238554  0.31441011  0.73505289     0.76900
O327        O  0.44899356  0.32026381  0.67449970    -0.61500
O328        O  0.44972716  0.35613097  0.65292903    -0.52500
C329        C  0.38382728  0.27046467  0.63330893     0.69600
O330        O  0.38566936  0.26951804  0.66329983    -0.47300
C331        C  0.37297324  0.33966333  0.66141909     0.74300
O332        O  0.38731495  0.29183108  0.71744924    -0.59200
O333        O  0.39987320  0.35274113  0.65245335    -0.49300
O334        O  0.41920514  0.33842343  0.72011511    -0.55600
C335        C  0.46444160  0.34564591  0.66192569     0.84500
O336        O  0.39347939  0.29587077  0.62212638    -0.57500
O337        O  0.36219418  0.31439390  0.67354835    -0.60800
In338      In  0.33145919  0.38473069  0.83128290     1.36900
C339        C  0.32884495  0.38390161  0.76711583     0.76900
O340        O  0.33438400  0.42763581  0.82735977    -0.61500
O341        O  0.37091417  0.42865029  0.84884542    -0.52500
C342        C  0.28623112  0.36270508  0.87285969     0.69600
O343        O  0.28242329  0.35460342  0.84393911    -0.47300
C344        C  0.35513845  0.35314819  0.84048786     0.74300
O345        O  0.30574591  0.37401834  0.78418835    -0.59200
O346        O  0.36792286  0.37964290  0.84979384    -0.49300
O347        O  0.35284655  0.39446599  0.78277668    -0.55600
C348        C  0.36019279  0.44311422  0.83984131     0.84500
O349        O  0.31313378  0.38148711  0.88063589    -0.57500
O350        O  0.32946997  0.34219105  0.82844577    -0.60800
In351      In  0.05602608  0.39703543  0.66926631     1.36900
C352        C  0.05303299  0.39243826  0.73246789     0.76900
O353        O  0.09868809  0.44149191  0.67682757    -0.61500
O354        O  0.06405005  0.43957118  0.64984942    -0.52500
C355        C  0.08112646  0.37723058  0.63206008     0.69600
O356        O  0.08596987  0.38116743  0.66171104    -0.47300
C357        C  0.49721374  0.36275002  0.66073638     0.74300
O358        O  0.06524558  0.38271236  0.71570310    -0.59200
O359        O  0.01283500  0.38939177  0.65145660    -0.49300
O360        O  0.04248850  0.40457656  0.71699275    -0.55600
C361        C  0.08966602  0.45551354  0.66250194     0.84500
O362        O  0.06354993  0.38370518  0.62106054    -0.57500
O363        O  0.01193293  0.35282935  0.67159021    -0.60800
In364      In  0.33044793  0.38319038  0.66778386     1.36900
C365        C  0.32850547  0.38321666  0.73182293     0.76900
O366        O  0.33075171  0.34208169  0.67266976    -0.61500
O367        O  0.36801472  0.37991379  0.65024428    -0.52500
C368        C  0.28576840  0.35878835  0.62473489     0.69600
O369        O  0.28166447  0.35174032  0.65399643    -0.47300
C370        C  0.35852861  0.44168821  0.66223994     0.74300
O371        O  0.30524635  0.37368155  0.71486343    -0.59200
O372        O  0.36863259  0.42769929  0.65008626    -0.49300
O373        O  0.35210158  0.39229446  0.71607942    -0.55600
C374        C  0.35649867  0.35389698  0.66060130     0.84500
O375        O  0.31266708  0.37805658  0.61754273    -0.57500
O376        O  0.33304338  0.42559611  0.67509622    -0.60800
In377      In  0.06208786  0.11386562  0.67341703     1.36900
C378        C  0.06344499  0.11301673  0.73716071     0.76900
O379        O  0.01828365  0.10966756  0.67870639    -0.61500
O380        O  0.01822927  0.07613442  0.65250269    -0.52500
C381        C  0.08542605  0.16221223  0.63679958     0.69600
O382        O  0.08241724  0.16237623  0.66670326    -0.47300
C383        C  0.09394722  0.09080915  0.66503088     0.74300
O384        O  0.07879646  0.13675813  0.72131901    -0.59200
O385        O  0.06773050  0.07879180  0.65402812    -0.49300
O386        O  0.04746525  0.08994046  0.72049694    -0.55600
C387        C  0.50306226  0.08514187  0.66423881     0.84500
O388        O  0.07678770  0.13713518  0.62535390    -0.57500
O389        O  0.10471326  0.11566712  0.67823898    -0.60800
In390      In  0.13447934  0.04554542  0.67177130     1.36900
C391        C  0.13541333  0.04247553  0.73562016     0.76900
O392        O  0.13510187  0.08700635  0.67761134    -0.61500
O393        O  0.09762253  0.04985497  0.65430910    -0.52500
C394        C  0.17880031  0.06917846  0.62898750     0.69600
O395        O  0.18313536  0.07680062  0.65811127    -0.47300
C396        C  0.10668636  0.48783722  0.66304886     0.74300
O397        O  0.15915447  0.05403231  0.71918340    -0.59200
O398        O  0.09587797  0.50199059  0.65319074    -0.49300
O399        O  0.11185733  0.03296384  0.71948483    -0.55600
C400        C  0.10961034  0.07583653  0.66495261     0.84500
O401        O  0.15186760  0.04998812  0.62171513    -0.57500
O402        O  0.13242624  0.50343649  0.67564652    -0.60800
In403      In  0.41102517  0.03256791  0.67399323     1.36900
C404        C  0.41062800  0.03247171  0.73742889     0.76900
O405        O  0.36790941  0.48786338  0.68031572    -0.61500
O406        O  0.40173416  0.49049837  0.65129567    -0.52500
C407        C  0.38676427  0.05598138  0.64127335     0.69600
O408        O  0.39383267  0.06133869  0.67037793    -0.47300
C409        C  0.47014337  0.06733310  0.66409572     0.74300
O410        O  0.39534100  0.03891927  0.72098503    -0.59200
O411        O  0.45436934  0.04080525  0.65446057    -0.49300
O412        O  0.42561083  0.02534846  0.72150994    -0.55600
C413        C  0.37618632  0.47419005  0.66395255     0.84500
O414        O  0.39301074  0.03914443  0.62813503    -0.57500
O415        O  0.45547547  0.07659947  0.67639096    -0.60800
In416      In  0.39951474  0.31132359  0.83400499     1.36900
C417        C  0.40073364  0.31301638  0.77015029     0.76900
O418        O  0.35831435  0.31197719  0.82820349    -0.61500
O419        O  0.39614123  0.34848799  0.85188572    -0.52500
C420        C  0.37241726  0.26242720  0.87067730     0.69600
O421        O  0.37955595  0.26292573  0.84183901    -0.47300
C422        C  0.45784432  0.33695747  0.84329216     0.74300
O423        O  0.38261050  0.28955649  0.78549029    -0.59200
O424        O  0.44385143  0.34683587  0.85618723    -0.49300
O425        O  0.41763817  0.33542870  0.78736512    -0.55600
C426        C  0.36996285  0.33719910  0.84094061     0.84500
O427        O  0.37994401  0.28746763  0.88119302    -0.57500
O428        O  0.44159805  0.31270333  0.82863446    -0.60800
In429      In  0.41199197  0.03444697  0.83577786     1.36900
C430        C  0.41111062  0.03338289  0.77234034     0.76900
O431        O  0.45743789  0.07733525  0.83210720    -0.61500
O432        O  0.45427091  0.04175160  0.85740062    -0.52500
C433        C  0.38978126  0.05848861  0.87145991     0.69600
O434        O  0.39721712  0.06535012  0.84261061    -0.47300
C435        C  0.37736285  0.47563090  0.84146232     0.74300
O436        O  0.39558535  0.03977460  0.78839288    -0.59200
O437        O  0.40317905  0.49117998  0.85390005    -0.49300
O438        O  0.42721241  0.02787911  0.78864579    -0.55600
C439        C  0.47107296  0.06765259  0.84626590     0.84500
O440        O  0.39401516  0.03941961  0.88241761    -0.57500
O441        O  0.36832277  0.49025585  0.82845306    -0.60800
In442      In  0.06255360  0.10988739  0.83603290     1.36900
C443        C  0.06372766  0.11206706  0.77222578     0.76900
O444        O  0.10340619  0.10861636  0.83005626    -0.61500
O445        O  0.06541368  0.07217017  0.85333856    -0.52500
C446        C  0.09041517  0.15855711  0.87268317     0.69600
O447        O  0.08100068  0.15753324  0.84475151    -0.47300
C448        C  0.50396642  0.08405132  0.84638524     0.74300
O449        O  0.08131454  0.13441805  0.78930017    -0.59200
O450        O  0.01802830  0.07336329  0.85707436    -0.49300
O451        O  0.04606426  0.08865609  0.78767667    -0.55600
C452        C  0.09160797  0.08334738  0.84267231     0.84500
O453        O  0.08456455  0.13395252  0.88278408    -0.57500
O454        O  0.02019932  0.10886927  0.83284732    -0.60800
In455      In  0.13056779  0.03619505  0.83461913     1.36900
C456        C  0.13447947  0.04010580  0.77076517     0.76900
O457        O  0.12717140  0.49345413  0.82702951    -0.61500
O458        O  0.09150465  0.49191324  0.85118662    -0.52500
C459        C  0.17453529  0.05676384  0.87802456     0.69600
O460        O  0.17937817  0.06253677  0.84853582    -0.47300
C461        C  0.10642957  0.06738397  0.84269053     0.74300
O462        O  0.15740714  0.05002407  0.78831907    -0.59200
O463        O  0.09309053  0.04048300  0.85064432    -0.49300
O464        O  0.11004956  0.02794990  0.78579088    -0.55600
C465        C  0.10164385  0.47769006  0.83983782     0.84500
O466        O  0.14719667  0.04064083  0.88552220    -0.57500
O467        O  0.13283301  0.07889536  0.83265879    -0.60800
In468      In  0.04923957  0.38697930  0.83055508     1.36900
C469        C  0.05133733  0.39003506  0.76727199     0.76900
O470        O  0.00377088  0.34489690  0.82537475    -0.61500
O471        O  0.00760721  0.37902782  0.85429505    -0.52500
C472        C  0.07124173  0.36202733  0.86451414     0.69600
O473        O  0.06405934  0.35599255  0.83547729    -0.47300
C474        C  0.08408565  0.44524767  0.83931944     0.74300
O475        O  0.06523987  0.38160219  0.78322440    -0.59200
O476        O  0.05775275  0.42950004  0.85022022    -0.49300
O477        O  0.03605237  0.39652191  0.78359096    -0.55600
C478        C  0.49059603  0.35370866  0.84187479     0.84500
O479        O  0.06659052  0.38042451  0.87650495    -0.57500
O480        O  0.09334251  0.43101646  0.82592417    -0.60800
C481        C  0.33306502  0.11153060  0.57713602     0.85800
C482        C  0.29993170  0.09956349  0.58318547    -0.54400
C483        C  0.28935361  0.11419371  0.56723825     0.08700
C484        C  0.31386690  0.14027074  0.54651552     0.19700
C485        C  0.33316390  0.10935105  0.54069196    -0.55100
C486        C  0.32460003  0.12529906  0.52396174     0.08800
C487        C  0.35043479  0.14437121  0.58509022    -0.54700
C488        C  0.34042677  0.15943360  0.57014106     0.09400
H489        H  0.28519514  0.07984238  0.59720149     0.13900
H490        H  0.30642984  0.15281296  0.53343103    -0.00300
H491        H  0.33799914  0.09439384  0.52960917     0.14200
H492        H  0.36783399  0.15449584  0.60342314     0.14000
C493        C  0.33351860  0.11120442  0.93589515     0.85800
C494        C  0.34304444  0.14174779  0.92357415    -0.54400
C495        C  0.32977609  0.15391606  0.93845286     0.08700
C496        C  0.30714481  0.13364540  0.96504554     0.19700
C497        C  0.33891854  0.11504399  0.97160395    -0.55100
C498        C  0.32452802  0.12539461  0.98780908     0.08800
C499        C  0.29900763  0.09324873  0.93132325    -0.54700
C500        C  0.28476102  0.10478412  0.94633910     0.09400
H501        H  0.35658185  0.15170420  0.90218966     0.13900
H502        H  0.29655684  0.14318465  0.97810115    -0.00300
H503        H  0.35352515  0.10955662  0.98279468     0.14200
H504        H  0.28725973  0.07439770  0.91505294     0.14000
C505        C  0.13322992  0.32032191  0.56978251     0.85800
C506        C  0.16627832  0.33148643  0.57617845    -0.54400
C507        C  0.17553350  0.31506320  0.56165445     0.08700
C508        C  0.14977379  0.28763594  0.54347061     0.19700
C509        C  0.13031859  0.31798667  0.53370737    -0.55100
C510        C  0.13818099  0.30072557  0.51912328     0.08800
C511        C  0.11639358  0.28848995  0.58252014    -0.54700
C512        C  0.12477100  0.27129826  0.56933059     0.09400
H513        H  0.18078918  0.34939383  0.59252220     0.13900
H514        H  0.15619813  0.27362768  0.53194272    -0.00300
H515        H  0.12383550  0.33109221  0.52111299     0.14200
H516        H  0.10071191  0.28082505  0.60237579     0.14000
C517        C  0.12862915  0.31105122  0.93002261     0.85800
C518        C  0.11917862  0.28025736  0.91898317    -0.54400
C519        C  0.13244084  0.26862623  0.93512756     0.08700
C520        C  0.15496912  0.28967687  0.96152787     0.19700
C521        C  0.12289683  0.30806253  0.96561717    -0.55100
C522        C  0.13739339  0.29838108  0.98305810     0.08800
C523        C  0.16308270  0.32892042  0.92585476    -0.54700
C524        C  0.17732911  0.31801232  0.94215782     0.09400
H525        H  0.10556348  0.26959884  0.89771953     0.13900
H526        H  0.16558595  0.28062586  0.97558701    -0.00300
H527        H  0.10804122  0.31357931  0.97565401     0.14200
H528        H  0.17475085  0.34691823  0.90861861     0.14000
C529        C  0.08223506  0.30561800  0.90308103    -0.02500
C530        C  0.11254679  0.32412289  0.91407702     0.07200
C531        C  0.12558129  0.35529708  0.91507129    -0.02600
C532        C  0.11231587  0.36762745  0.89829272    -0.02600
C533        C  0.08465290  0.34899914  0.88270372     0.07300
C534        C  0.06925824  0.31801358  0.88572441    -0.02800
Br535      Br  0.02929366  0.29256050  0.86796336    -0.01400
Br536      Br  0.05528913  0.26491045  0.91744961    -0.01500
Br537      Br  0.13259317  0.41035589  0.89603837    -0.01400
Br538      Br  0.15819220  0.38138675  0.94378580    -0.01400
C539        C  0.23124449  0.06174266  0.93668304    -0.02500
C540        C  0.25230618  0.09289636  0.93868070     0.07200
C541        C  0.24304920  0.11140238  0.92734652    -0.02600
C542        C  0.21722743  0.09928064  0.90779531    -0.02600
C543        C  0.19914115  0.06861993  0.90174120     0.07300
C544        C  0.20492278  0.04965350  0.91808985    -0.02800
Br545      Br  0.17768262  0.00716048  0.91353798    -0.01400
Br546      Br  0.23748728  0.03541994  0.96088209    -0.01500
Br547      Br  0.20598158  0.12444983  0.88920762    -0.01400
Br548      Br  0.26269472  0.15244131  0.93956514    -0.01400
C549        C  0.13629751  0.24088319  0.88964161    -0.02500
C550        C  0.12909878  0.24146313  0.92210180     0.07200
C551        C  0.11447681  0.21505281  0.93998924    -0.02600
C552        C  0.10259571  0.18752289  0.92452295    -0.02600
C553        C  0.10698965  0.18671612  0.89119133     0.07300
C554        C  0.12600378  0.21368688  0.87456928    -0.02800
Br555      Br  0.13879136  0.21380947  0.83118771    -0.01400
Br556      Br  0.16000108  0.27733223  0.86531467    -0.03100
Br557      Br  0.07843931  0.15140306  0.94890273    -0.01400
Br558      Br  0.11000866  0.21670161  0.98537961    -0.01400
C559        C  0.35010928  0.05382628  0.90746666    -0.02500
C560        C  0.37708879  0.07187839  0.89053261     0.07200
C561        C  0.39243995  0.10296754  0.89250212    -0.02600
C562        C  0.37980549  0.11589400  0.90943469    -0.02600
C563        C  0.34979126  0.09774377  0.92119805     0.07300
C564        C  0.33720737  0.06674563  0.92385157    -0.02800
Br565      Br  0.30567763  0.04210849  0.95408748    -0.01400
Br566      Br  0.33003786  0.01112296  0.90734951    -0.01500
Br567      Br  0.40701925  0.15701475  0.92238766    -0.01400
Br568      Br  0.43198262  0.12796128  0.87381195    -0.01400
C569        C  0.32591365  0.18023980  0.89118405    -0.02500
C570        C  0.33318539  0.18072981  0.92390106     0.07200
C571        C  0.34849153  0.20786992  0.94047481    -0.02600
C572        C  0.36132614  0.23486191  0.92353193    -0.02600
C573        C  0.35651289  0.23457205  0.89002130     0.07300
C574        C  0.33681585  0.20696119  0.87458019    -0.02800
Br575      Br  0.32381543  0.20510745  0.83078379    -0.01400
Br576      Br  0.30089626  0.14279696  0.86881453    -0.01500
Br577      Br  0.38768296  0.27159899  0.94635007    -0.01400
Br578      Br  0.35200565  0.20785646  0.98628924    -0.01400
C579        C  0.38622286  0.08661293  0.59722289    -0.02500
C580        C  0.37248780  0.06883968  0.62438942     0.07200
C581        C  0.34750961  0.06678587  0.63816400    -0.02600
C582        C  0.33618055  0.08244593  0.62479386    -0.02600
C583        C  0.34702500  0.09697545  0.59464609     0.07300
C584        C  0.37420390  0.10129046  0.58285327    -0.02800
Br585      Br  0.39842909  0.13059344  0.55018951    -0.01400
Br586      Br  0.42308562  0.09270967  0.58119848    -0.01500
Br587      Br  0.31231167  0.08966346  0.65298811    -0.01400
Br588      Br  0.32848150  0.04217892  0.67564478    -0.01400
C589        C  0.22215458  0.11155244  0.59915930    -0.02500
C590        C  0.20349400  0.08088161  0.60558223     0.07200
C591        C  0.20897638  0.06134050  0.59007959    -0.02600
C592        C  0.23514781  0.07279606  0.57176948    -0.02600
C593        C  0.25700088  0.10377415  0.57067502     0.07300
C594        C  0.24854114  0.12302589  0.58085709    -0.02800
Br595      Br  0.27143801  0.16443646  0.56923355    -0.01400
Br596      Br  0.21140319  0.13762746  0.61572009    -0.01500
Br597      Br  0.24147265  0.04594370  0.54855332    -0.01400
Br598      Br  0.18261240  0.01899213  0.59679147    -0.01400
C599        C  0.08133760  0.18897269  0.58995994    -0.02500
C600        C  0.09727574  0.18931762  0.61719218     0.07200
C601        C  0.12223473  0.21658503  0.62842361    -0.02600
C602        C  0.13008891  0.24333378  0.61380647    -0.02600
C603        C  0.11563045  0.24289865  0.58520309     0.07300
C604        C  0.09019826  0.21580318  0.57442383    -0.02800
Br605      Br  0.06442454  0.21618374  0.54238537    -0.01400
Br606      Br  0.04603935  0.15217850  0.57516866    -0.01500
Br607      Br  0.15831418  0.28032569  0.63549129    -0.01400
Br608      Br  0.14689243  0.21742042  0.66286637    -0.01400
C609        C  0.25744298  0.36525011  0.58137424    -0.02500
C610        C  0.26086776  0.34623275  0.60113777     0.07200
C611        C  0.23978653  0.31524991  0.59877982    -0.02600
C612        C  0.21364466  0.30376238  0.57989970    -0.02600
C613        C  0.20716251  0.32345078  0.56616062     0.07300
C614        C  0.23077232  0.35373172  0.56373446    -0.02800
Br615      Br  0.22651182  0.37933789  0.53574447    -0.01400
Br616      Br  0.28756716  0.40750518  0.58074985    -0.01500
Br617      Br  0.18898074  0.26171248  0.57143695    -0.01400
Br618      Br  0.24669169  0.28854678  0.62148098    -0.01400
C619        C  0.07579147  0.33735290  0.59743667    -0.02500
C620        C  0.09441514  0.36504883  0.61231245     0.07200
C621        C  0.12567473  0.38098498  0.60834538    -0.02600
C622        C  0.13848760  0.36808861  0.59171265    -0.02600
C623        C  0.12030445  0.33765928  0.58257014     0.07300
C624        C  0.08851495  0.32387725  0.58202725    -0.02800
Br625      Br  0.06163800  0.28793208  0.55774417    -0.01400
Br626      Br  0.03263860  0.31756137  0.59888731    -0.01500
Br627      Br  0.17796389  0.39495210  0.57405868    -0.01400
Br628      Br  0.15056640  0.42153419  0.62345930    -0.01400
C629        C  0.23067037  0.36026603  0.93073297    -0.02500
C630        C  0.20945916  0.32928809  0.93426777     0.07200
C631        C  0.21768801  0.31001419  0.92312930    -0.02600
C632        C  0.24221214  0.32084993  0.90210713    -0.02600
C633        C  0.26114948  0.35143167  0.89568935     0.07300
C634        C  0.25642363  0.37129103  0.91169695    -0.02800
Br635      Br  0.28390695  0.41364170  0.90557053    -0.01400
Br636      Br  0.22536046  0.38801286  0.95298951    -0.01500
Br637      Br  0.25006730  0.29372126  0.88209666    -0.01400
Br638      Br  0.19906873  0.26998093  0.93853045    -0.01400
C639        C  0.38710579  0.24225169  0.58764629    -0.02500
C640        C  0.37102605  0.24345484  0.61365311     0.07200
C641        C  0.34461525  0.21731834  0.62440695    -0.02600
C642        C  0.33541176  0.18993934  0.61080774    -0.02600
C643        C  0.34984891  0.18876231  0.58317476     0.07300
C644        C  0.37665287  0.21480151  0.57263421    -0.02800
Br645      Br  0.40177310  0.21192369  0.54190743    -0.01400
Br646      Br  0.42477918  0.27744589  0.57452861    -0.01500
Br647      Br  0.30700930  0.15438541  0.63440707    -0.01400
Br648      Br  0.32059426  0.21873175  0.65794452    -0.01400
In649      In  0.40567284  0.81736050  0.17120899     1.36900
C650        C  0.40238557  0.81441003  0.23505294     0.76900
O651        O  0.44899333  0.82026357  0.17449929    -0.61500
O652        O  0.44972697  0.85613086  0.15292892    -0.52500
C653        C  0.38382681  0.77046454  0.13330921     0.69600
O654        O  0.38566878  0.76951792  0.16330013    -0.47300
C655        C  0.37297315  0.83966342  0.16141919     0.74300
O656        O  0.38731499  0.79183101  0.21744930    -0.59200
O657        O  0.39987316  0.85274127  0.15245368    -0.49300
O658        O  0.41920514  0.83842335  0.22011515    -0.55600
C659        C  0.46444137  0.84564572  0.16192539     0.84500
O660        O  0.39347919  0.79587067  0.12212656    -0.57500
O661        O  0.36219401  0.81439387  0.17354822    -0.60800
In662      In  0.33145898  0.88473094  0.33128296     1.36900
C663        C  0.32884500  0.88390203  0.26711588     0.76900
O664        O  0.33438390  0.92763612  0.32735960    -0.61500
O665        O  0.37091385  0.92865048  0.34884565    -0.52500
C666        C  0.28623089  0.86270534  0.37285976     0.69600
O667        O  0.28242303  0.85460363  0.34393919    -0.47300
C668        C  0.35513806  0.85314823  0.34048789     0.74300
O669        O  0.30574594  0.87401890  0.28418835    -0.59200
O670        O  0.36792245  0.87964287  0.34979411    -0.49300
O671        O  0.35284655  0.89446622  0.28277678    -0.55600
C672        C  0.36019263  0.94311449  0.33984130     0.84500
O673        O  0.31313353  0.88148744  0.38063591    -0.57500
O674        O  0.32946970  0.84219124  0.32844556    -0.60800
In675      In  0.05602582  0.89703525  0.16926652     1.36900
C676        C  0.05303252  0.89243806  0.23246813     0.76900
O677        O  0.09868807  0.94149170  0.17682746    -0.61500
O678        O  0.06404985  0.93957115  0.14984995    -0.52500
C679        C  0.08112611  0.87723023  0.13206048     0.69600
O680        O  0.08596903  0.88116651  0.16171156    -0.47300
C681        C  0.49721348  0.86274980  0.16073614     0.74300
O682        O  0.06524575  0.88271276  0.21570345    -0.59200
O683        O  0.01283486  0.88939158  0.15145641    -0.49300
O684        O  0.04248754  0.90457582  0.21699286    -0.55600
C685        C  0.08966597  0.95551343  0.16250212     0.84500
O686        O  0.06355005  0.88370537  0.12106080    -0.57500
O687        O  0.01193271  0.85282905  0.17158982    -0.60800
In688      In  0.33044788  0.88319048  0.16778384     1.36900
C689        C  0.32850551  0.88321704  0.23182296     0.76900
O690        O  0.33075170  0.84208185  0.17267002    -0.61500
O691        O  0.36801455  0.87991378  0.15024411    -0.52500
C692        C  0.28576828  0.85878832  0.12473496     0.69600
O693        O  0.28166442  0.85174027  0.15399651    -0.47300
C694        C  0.35852836  0.94168825  0.16223948     0.74300
O695        O  0.30524635  0.87368171  0.21486346    -0.59200
O696        O  0.36863250  0.92769936  0.15008610    -0.49300
O697        O  0.35210165  0.89229496  0.21607943    -0.55600
C698        C  0.35649856  0.85389703  0.16060140     0.84500
O699        O  0.31266693  0.87805658  0.11754275    -0.57500
O700        O  0.33304309  0.92559614  0.17509562    -0.60800
In701      In  0.06208795  0.61386556  0.17341713     1.36900
C702        C  0.06344502  0.61301678  0.23716076     0.76900
O703        O  0.01828384  0.60966769  0.17870617    -0.61500
O704        O  0.01822933  0.57613421  0.15250300    -0.52500
C705        C  0.08542616  0.66221217  0.13679974     0.69600
O706        O  0.08241747  0.66237622  0.16670343    -0.47300
C707        C  0.09394733  0.59080908  0.16503104     0.74300
O708        O  0.07879633  0.63675819  0.22131904    -0.59200
O709        O  0.06773068  0.57879181  0.15402814    -0.49300
O710        O  0.04746544  0.58994046  0.22049701    -0.55600
C711        C  0.50306236  0.58514173  0.16423881     0.84500
O712        O  0.07678767  0.63713508  0.12535405    -0.57500
O713        O  0.10471331  0.61566698  0.17823930    -0.60800
In714      In  0.13447944  0.54554535  0.17177121     1.36900
C715        C  0.13541353  0.54247551  0.23561997     0.76900
O716        O  0.13510173  0.58700605  0.17761201    -0.61500
O717        O  0.09762296  0.54985520  0.15430844    -0.52500
C718        C  0.17880029  0.56917845  0.12898734     0.69600
O719        O  0.18313537  0.57680085  0.15811104    -0.47300
C720        C  0.10668642  0.98783713  0.16304899     0.74300
O721        O  0.15915461  0.55403186  0.21918316    -0.59200
O722        O  0.09587789  0.00199047  0.15319121    -0.49300
O723        O  0.11185758  0.53296425  0.21948471    -0.55600
C724        C  0.10961049  0.57583650  0.16495270     0.84500
O725        O  0.15186761  0.54998784  0.12171509    -0.57500
O726        O  0.13242650  0.00343643  0.17564621    -0.60800
In727      In  0.41102528  0.53256809  0.17399333     1.36900
C728        C  0.41062807  0.53247192  0.23742906     0.76900
O729        O  0.36790949  0.98786344  0.18031574    -0.61500
O730        O  0.40173363  0.99049840  0.15129458    -0.52500
C731        C  0.38676454  0.55598176  0.14127355     0.69600
O732        O  0.39383339  0.56133940  0.17037801    -0.47300
C733        C  0.47014348  0.56733304  0.16409570     0.74300
O734        O  0.39534104  0.53891942  0.22098517    -0.59200
O735        O  0.45436942  0.54080498  0.15446125    -0.49300
O736        O  0.42561092  0.52534870  0.22151011    -0.55600
C737        C  0.37618606  0.97419010  0.16395201     0.84500
O738        O  0.39301043  0.53914437  0.12813528    -0.57500
O739        O  0.45547562  0.57659973  0.17639027    -0.60800
In740      In  0.39951435  0.81132358  0.33400513     1.36900
C741        C  0.40073362  0.81301633  0.27015036     0.76900
O742        O  0.35831409  0.81197736  0.32820306    -0.61500
O743        O  0.39614057  0.84848774  0.35188625    -0.52500
C744        C  0.37241680  0.76242718  0.37067752     0.69600
O745        O  0.37955559  0.76292573  0.34183928    -0.47300
C746        C  0.45784392  0.83695753  0.34329236     0.74300
O747        O  0.38261047  0.78955645  0.28549036    -0.59200
O748        O  0.44385108  0.84683615  0.35618701    -0.49300
O749        O  0.41763799  0.83542868  0.28736522    -0.55600
C750        C  0.36996239  0.83719907  0.34094064     0.84500
O751        O  0.37994342  0.78746760  0.38119318    -0.57500
O752        O  0.44159760  0.81270311  0.32863515    -0.60800
In753      In  0.41199203  0.53444717  0.33577803     1.36900
C754        C  0.41111069  0.53338310  0.27234051     0.76900
O755        O  0.45743802  0.57733539  0.33210747    -0.61500
O756        O  0.45427102  0.54175159  0.35740054    -0.52500
C757        C  0.38978142  0.55848881  0.37146020     0.69600
O758        O  0.39721698  0.56535015  0.34261081    -0.47300
C759        C  0.37736284  0.97563118  0.34146212     0.74300
O760        O  0.39558543  0.53977484  0.28839304    -0.59200
O761        O  0.40317896  0.99118020  0.35390007    -0.49300
O762        O  0.42721246  0.52787929  0.28864597    -0.55600
C763        C  0.47107309  0.56765263  0.34626596     0.84500
O764        O  0.39401558  0.53942000  0.38241793    -0.57500
O765        O  0.36832304  0.99025621  0.32845245    -0.60800
In766      In  0.06255380  0.60988736  0.33603293     1.36900
C767        C  0.06372774  0.61206712  0.27222582     0.76900
O768        O  0.10340646  0.60861644  0.33005633    -0.61500
O769        O  0.06541372  0.57216991  0.35333797    -0.52500
C770        C  0.09041539  0.65855704  0.37268343     0.69600
O771        O  0.08100103  0.65753322  0.34475172    -0.47300
C772        C  0.50396657  0.58405136  0.34638526     0.74300
O773        O  0.08131445  0.63441817  0.28930022    -0.59200
O774        O  0.01802855  0.57336343  0.35707470    -0.49300
O775        O  0.04606459  0.58865606  0.28767669    -0.55600
C776        C  0.09160812  0.58334728  0.34267202     0.84500
O777        O  0.08456463  0.63395239  0.38278432    -0.57500
O778        O  0.02019946  0.60886905  0.33284692    -0.60800
In779      In  0.13056796  0.53619502  0.33461885     1.36900
C780        C  0.13447969  0.54010583  0.27076497     0.76900
O781        O  0.12717122  0.99345372  0.32702937    -0.61500
O782        O  0.09150478  0.99191300  0.35118695    -0.52500
C783        C  0.17453531  0.55676383  0.37802438     0.69600
O784        O  0.17937825  0.56253653  0.34853560    -0.47300
C785        C  0.10642973  0.56738390  0.34269012     0.74300
O786        O  0.15740734  0.55002394  0.28831885    -0.59200
O787        O  0.09309044  0.54048273  0.35064327    -0.49300
O788        O  0.11004979  0.52795014  0.28579067    -0.55600
C789        C  0.10164382  0.97768974  0.33983803     0.84500
O790        O  0.14719667  0.54064104  0.38552202    -0.57500
O791        O  0.13283335  0.57889545  0.33265896    -0.60800
In792      In  0.04923914  0.88697901  0.33055540     1.36900
C793        C  0.05133681  0.89003480  0.26727224     0.76900
O794        O  0.00377040  0.84489670  0.32537549    -0.61500
O795        O  0.00760678  0.87902820  0.35429473    -0.52500
C796        C  0.07124094  0.86202659  0.36451453     0.69600
O797        O  0.06405873  0.85599200  0.33547760    -0.47300
C798        C  0.08408561  0.94524735  0.33931982     0.74300
O799        O  0.06523934  0.88160195  0.28322464    -0.59200
O800        O  0.05775302  0.92949978  0.35022143    -0.49300
O801        O  0.03605183  0.89652163  0.28359125    -0.55600
C802        C  0.49059563  0.85370869  0.34187495     0.84500
O803        O  0.06658970  0.88042375  0.37650535    -0.57500
O804        O  0.09334206  0.93101609  0.32592383    -0.60800
C805        C  0.33306484  0.61153054  0.07713636     0.85800
C806        C  0.29993150  0.59956344  0.08318568    -0.54400
C807        C  0.28935347  0.61419367  0.06723833     0.08700
C808        C  0.31386684  0.64027072  0.04651570     0.19700
C809        C  0.33316383  0.60935103  0.04069229    -0.55100
C810        C  0.32460002  0.62529905  0.02396202     0.08800
C811        C  0.35043455  0.64437115  0.08509061    -0.54700
C812        C  0.34042661  0.65943355  0.07014138     0.09400
H813        H  0.28519486  0.57984232  0.09720173     0.13900
H814        H  0.30642984  0.65281294  0.03343118    -0.00300
H815        H  0.33799908  0.59439381  0.02960953     0.14200
H816        H  0.36783368  0.65449574  0.10342365     0.14000
C817        C  0.33351851  0.61120439  0.43589532     0.85800
C818        C  0.34304447  0.64174785  0.42357444    -0.54400
C819        C  0.32977605  0.65391607  0.43845309     0.08700
C820        C  0.30714464  0.63364532  0.46504565     0.19700
C821        C  0.33891826  0.61504378  0.47160417    -0.55100
C822        C  0.32452770  0.62539439  0.48780925     0.08800
C823        C  0.29900760  0.59324881  0.43132323    -0.54700
C824        C  0.28476093  0.60478412  0.44633903     0.09400
H825        H  0.35658195  0.65170429  0.40219001     0.13900
H826        H  0.29655659  0.64318450  0.47810117    -0.00300
H827        H  0.35352474  0.60955634  0.48279493     0.14200
H828        H  0.28725969  0.57439774  0.41505272     0.14000
C829        C  0.13322963  0.82032167  0.06978273     0.85800
C830        C  0.16627802  0.83148625  0.07617869    -0.54400
C831        C  0.17553330  0.81506312  0.06165462     0.08700
C832        C  0.14977366  0.78763588  0.04347069     0.19700
C833        C  0.13031833  0.81798654  0.03370754    -0.55100
C834        C  0.13818087  0.80072555  0.01912342     0.08800
C835        C  0.11639332  0.78848968  0.08252023    -0.54700
C836        C  0.12477081  0.77129808  0.06933063     0.09400
H837        H  0.18078882  0.84939361  0.09252250     0.13900
H838        H  0.15619804  0.77362769  0.03194275    -0.00300
H839        H  0.12383519  0.83109197  0.02111330     0.14200
H840        H  0.10071161  0.78082470  0.10237591     0.14000
C841        C  0.12862881  0.81105080  0.43002294     0.85800
C842        C  0.11917845  0.78025699  0.41898350    -0.54400
C843        C  0.13244085  0.76862603  0.43512789     0.08700
C844        C  0.15496911  0.78967674  0.46152813     0.19700
C845        C  0.12289654  0.80806208  0.46561753    -0.55100
C846        C  0.13739331  0.79838082  0.48305838     0.08800
C847        C  0.16308235  0.82892016  0.42585504    -0.54700
C848        C  0.17732892  0.81801222  0.44215803     0.09400
H849        H  0.10556336  0.76959845  0.39771989     0.13900
H850        H  0.16558607  0.78062586  0.47558722    -0.00300
H851        H  0.10804085  0.81357865  0.47565439     0.14200
H852        H  0.17475045  0.84691807  0.40861888     0.14000
C853        C  0.08223464  0.80561730  0.40308119    -0.02500
C854        C  0.11254625  0.82412230  0.41407740     0.07200
C855        C  0.12558050  0.85529642  0.41507191    -0.02600
C856        C  0.11231502  0.86762676  0.39829336    -0.02600
C857        C  0.08465217  0.84899841  0.38270413     0.07300
C858        C  0.06925776  0.81801284  0.38572456    -0.02800
Br859      Br  0.02929334  0.79255970  0.36796334    -0.01400
Br860      Br  0.05528879  0.76490981  0.41745008    -0.01500
Br861      Br  0.13259220  0.91035519  0.39603934    -0.01400
Br862      Br  0.15819114  0.88138590  0.44378678    -0.01400
C863        C  0.23124448  0.56174271  0.43668286    -0.02500
C864        C  0.25230612  0.59289641  0.43868058     0.07200
C865        C  0.24304913  0.61140244  0.42734640    -0.02600
C866        C  0.21722738  0.59928067  0.40779513    -0.02600
C867        C  0.19914114  0.56861994  0.40174102     0.07300
C868        C  0.20492281  0.54965352  0.41808962    -0.02800
Br869      Br  0.17768281  0.50716047  0.41353755    -0.01400
Br870      Br  0.23748720  0.53542009  0.46088214    -0.01500
Br871      Br  0.20598142  0.62444978  0.38920744    -0.01400
Br872      Br  0.26269465  0.65244144  0.43956495    -0.01400
C873        C  0.13629780  0.74088317  0.38964196    -0.02500
C874        C  0.12909906  0.74146306  0.42210215     0.07200
C875        C  0.11447722  0.71505275  0.43998960    -0.02600
C876        C  0.10259600  0.68752284  0.42452326    -0.02600
C877        C  0.10698987  0.68671607  0.39119162     0.07300
C878        C  0.12600401  0.71368687  0.37456959    -0.02800
Br879      Br  0.13879163  0.71380961  0.33118799    -0.01400
Br880      Br  0.16000126  0.77733222  0.36531498    -0.03100
Br881      Br  0.07843933  0.65140303  0.44890299    -0.01400
Br882      Br  0.11000959  0.71670157  0.48538009    -0.01400
C883        C  0.35010931  0.55382633  0.40746684    -0.02500
C884        C  0.37708892  0.57187852  0.39053294     0.07200
C885        C  0.39244004  0.60296767  0.39250248    -0.02600
C886        C  0.37980554  0.61589405  0.40943514    -0.02600
C887        C  0.34979124  0.59774377  0.42119831     0.07300
C888        C  0.33720727  0.56674559  0.42385166    -0.02800
Br889      Br  0.30567719  0.54210828  0.45408723    -0.01400
Br890      Br  0.33003788  0.51112299  0.40734934    -0.01500
Br891      Br  0.40701927  0.65701472  0.42238841    -0.01400
Br892      Br  0.43198270  0.62796147  0.37381225    -0.01400
C893        C  0.32591353  0.68023977  0.39118424    -0.02500
C894        C  0.33318526  0.68072978  0.42390125     0.07200
C895        C  0.34849110  0.70786986  0.44047504    -0.02600
C896        C  0.36132555  0.73486187  0.42353221    -0.02600
C897        C  0.35651248  0.73457203  0.39002154     0.07300
C898        C  0.33681567  0.70696115  0.37458037    -0.02800
Br899      Br  0.32381558  0.70510739  0.33078381    -0.01400
Br900      Br  0.30089625  0.64279692  0.36881476    -0.01500
Br901      Br  0.38768167  0.77159897  0.44635059    -0.01400
Br902      Br  0.35200462  0.70785624  0.48628952    -0.01400
C903        C  0.38622307  0.58661337  0.09722321    -0.02500
C904        C  0.37248804  0.56884006  0.12438970     0.07200
C905        C  0.34750970  0.56678595  0.13816425    -0.02600
C906        C  0.33618045  0.58244585  0.12479414    -0.02600
C907        C  0.34702488  0.59697546  0.09464640     0.07300
C908        C  0.37420389  0.60129069  0.08285356    -0.02800
Br909      Br  0.39842898  0.63059383  0.05018983    -0.01400
Br910      Br  0.42308608  0.59271052  0.08119901    -0.01500
Br911      Br  0.31231125  0.58966298  0.15298837    -0.01400
Br912      Br  0.32848184  0.54217891  0.17564505    -0.01400
C913        C  0.22215459  0.61155249  0.09915928    -0.02500
C914        C  0.20349391  0.58088163  0.10558200     0.07200
C915        C  0.20897615  0.56134051  0.09007913    -0.02600
C916        C  0.23514763  0.57279610  0.07176909    -0.02600
C917        C  0.25700075  0.60377416  0.07067482     0.07300
C918        C  0.24854107  0.62302592  0.08085698    -0.02800
Br919      Br  0.27143786  0.66443646  0.06923334    -0.01400
Br920      Br  0.21140348  0.63762763  0.11572038    -0.01500
Br921      Br  0.24147273  0.54594385  0.04855311    -0.01400
Br922      Br  0.18261221  0.51899212  0.09679101    -0.01400
C923        C  0.08133753  0.68897257  0.08996020    -0.02500
C924        C  0.09727579  0.68931752  0.11719230     0.07200
C925        C  0.12223483  0.71658495  0.12842359    -0.02600
C926        C  0.13008889  0.74333367  0.11380651    -0.02600
C927        C  0.11563038  0.74289851  0.08520316     0.07300
C928        C  0.09019813  0.71580303  0.07442406    -0.02800
Br929      Br  0.06442404  0.71618350  0.04238608    -0.01400
Br930      Br  0.04603913  0.65217843  0.07516917    -0.01500
Br931      Br  0.15831406  0.78032550  0.13549152    -0.01400
Br932      Br  0.14689282  0.71742038  0.16286599    -0.01400
C933        C  0.25744277  0.86525011  0.08137445    -0.02500
C934        C  0.26086759  0.84623274  0.10113792     0.07200
C935        C  0.23978636  0.81524990  0.09877998    -0.02600
C936        C  0.21364450  0.80376237  0.07989985    -0.02600
C937        C  0.20716232  0.82345076  0.06616081     0.07300
C938        C  0.23077210  0.85373171  0.06373470    -0.02800
Br939      Br  0.22651162  0.87933788  0.03574473    -0.01400
Br940      Br  0.28756682  0.90750518  0.08075015    -0.01500
Br941      Br  0.18898056  0.76171247  0.07143720    -0.01400
Br942      Br  0.24669152  0.78854675  0.12148105    -0.01400
C943        C  0.07579117  0.83735254  0.09743710    -0.02500
C944        C  0.09441481  0.86504852  0.11231283     0.07200
C945        C  0.12567439  0.88098472  0.10834565    -0.02600
C946        C  0.13848725  0.86808835  0.09171291    -0.02600
C947        C  0.12030414  0.83765900  0.08257046     0.07300
C948        C  0.08851465  0.82387693  0.08202762    -0.02800
Br949      Br  0.06163785  0.78793188  0.05774427    -0.01400
Br950      Br  0.03263831  0.81756090  0.09888784    -0.01500
Br951      Br  0.17796343  0.89495186  0.07405871    -0.01400
Br952      Br  0.15056608  0.92153397  0.12345937    -0.01400
C953        C  0.23067002  0.86026609  0.43073302    -0.02500
C954        C  0.20945899  0.82928812  0.43426793     0.07200
C955        C  0.21768801  0.81001434  0.42312950    -0.02600
C956        C  0.24221218  0.82085018  0.40210739    -0.02600
C957        C  0.26114930  0.85143191  0.39568948     0.07300
C958        C  0.25642327  0.87129119  0.41169696    -0.02800
Br959      Br  0.28390631  0.91364186  0.40557033    -0.01400
Br960      Br  0.22535992  0.88801283  0.45298953    -0.01500
Br961      Br  0.25006773  0.79372169  0.38209717    -0.01400
Br962      Br  0.19906899  0.76998111  0.43853055    -0.01400
C963        C  0.38710550  0.74225157  0.08764677    -0.02500
C964        C  0.37102561  0.74345470  0.11365344     0.07200
C965        C  0.34461472  0.71731819  0.12440713    -0.02600
C966        C  0.33541135  0.68993920  0.11080796    -0.02600
C967        C  0.34984862  0.68876223  0.08317506     0.07300
C968        C  0.37665255  0.71480147  0.07263455    -0.02800
Br969      Br  0.40177284  0.71192385  0.04190769    -0.01400
Br970      Br  0.42477924  0.77744567  0.07452961    -0.01500
Br971      Br  0.30700880  0.65438518  0.13440714    -0.01400
Br972      Br  0.32059358  0.71873152  0.15794457    -0.01400
In973      In  0.40567295  0.81736052  0.67120892     1.36900
C974        C  0.40238556  0.81440998  0.73505290     0.76900
O975        O  0.44899350  0.82026380  0.67449949    -0.61500
O976        O  0.44972706  0.85613099  0.65292893    -0.52500
C977        C  0.38382727  0.77046469  0.63330893     0.69600
O978        O  0.38566940  0.76951809  0.66329982    -0.47300
C979        C  0.37297311  0.83966326  0.66141927     0.74300
O980        O  0.38731497  0.79183098  0.71744923    -0.59200
O981        O  0.39987309  0.85274115  0.65245361    -0.49300
O982        O  0.41920515  0.83842332  0.72011513    -0.55600
C983        C  0.46444152  0.84564594  0.66192556     0.84500
O984        O  0.39347942  0.79587080  0.62212636    -0.57500
O985        O  0.36219407  0.81439375  0.67354836    -0.60800
In986      In  0.33145905  0.88473062  0.83128308     1.36900
C987        C  0.32884481  0.88390146  0.76711599     0.76900
O988        O  0.33438396  0.92763581  0.82735960    -0.61500
O989        O  0.37091393  0.92865024  0.84884564    -0.52500
C990        C  0.28623093  0.86270506  0.87285976     0.69600
O991        O  0.28242315  0.85460349  0.84393915    -0.47300
C992        C  0.35513819  0.85314803  0.84048800     0.74300
O993        O  0.30574578  0.87401814  0.78418853    -0.59200
O994        O  0.36792261  0.87964271  0.84979411    -0.49300
O995        O  0.35284643  0.89446588  0.78277685    -0.55600
C996        C  0.36019269  0.94311422  0.83984127     0.84500
O997        O  0.31313357  0.88148698  0.88063608    -0.57500
O998        O  0.32946976  0.84219094  0.82844582    -0.60800
In999      In  0.05602605  0.89703547  0.66926639     1.36900
C1000       C  0.05303287  0.89243839  0.73246800     0.76900
O1001       O  0.09868816  0.94149190  0.67682762    -0.61500
O1002       O  0.06405022  0.93957125  0.64984936    -0.52500
C1003       C  0.08112620  0.87723027  0.63206038     0.69600
O1004       O  0.08596928  0.88116680  0.66171141    -0.47300
C1005       C  0.49721364  0.86275008  0.66073637     0.74300
O1006       O  0.06524587  0.88271286  0.71570329    -0.59200
O1007       O  0.01283503  0.88939192  0.65145679    -0.49300
O1008       O  0.04248809  0.90457634  0.71699277    -0.55600
C1009       C  0.08966618  0.95551357  0.66250194     0.84500
O1010       O  0.06355002  0.88370525  0.62106067    -0.57500
O1011       O  0.01193292  0.85282935  0.67159001    -0.60800
In1012     In  0.33044782  0.88319029  0.66778397     1.36900
C1013       C  0.32850536  0.88321657  0.73182305     0.76900
O1014       O  0.33075155  0.84208157  0.67266998    -0.61500
O1015       O  0.36801461  0.87991370  0.65024455    -0.52500
C1016       C  0.28576831  0.85878822  0.62473502     0.69600
O1017       O  0.28166434  0.85174042  0.65399663    -0.47300
C1018       C  0.35852839  0.94168811  0.66223975     0.74300
O1019       O  0.30524621  0.87368135  0.71486353    -0.59200
O1020       O  0.36863231  0.92769914  0.65008607    -0.49300
O1021       O  0.35210150  0.89229453  0.71607954    -0.55600
C1022       C  0.35649850  0.85389685  0.66060156     0.84500
O1023       O  0.31266702  0.87805620  0.61754277    -0.57500
O1024       O  0.33304325  0.92559606  0.67509620    -0.60800
In1025     In  0.06208774  0.61386558  0.67341729     1.36900
C1026       C  0.06344486  0.61301668  0.73716095     0.76900
O1027       O  0.01828362  0.60966768  0.67870637    -0.61500
O1028       O  0.01822919  0.57613435  0.65250299    -0.52500
C1029       C  0.08542596  0.66221210  0.63679975     0.69600
O1030       O  0.08241749  0.66237626  0.66670348    -0.47300
C1031       C  0.09394709  0.59080908  0.66503111     0.74300
O1032       O  0.07879614  0.63675811  0.72131925    -0.59200
O1033       O  0.06773037  0.57879175  0.65402840    -0.49300
O1034       O  0.04746525  0.58994037  0.72049719    -0.55600
C1035       C  0.50306225  0.58514194  0.66423901     0.84500
O1036       O  0.07678724  0.63713493  0.62535411    -0.57500
O1037       O  0.10471315  0.61566705  0.67823921    -0.60800
In1038     In  0.13447932  0.54554545  0.67177134     1.36900
C1039       C  0.13541342  0.54247572  0.73562016     0.76900
O1040       O  0.13510178  0.58700629  0.67761139    -0.61500
O1041       O  0.09762244  0.54985493  0.65430912    -0.52500
C1042       C  0.17880029  0.56917851  0.62898757     0.69600
O1043       O  0.18313536  0.57680084  0.65811128    -0.47300
C1044       C  0.10668653  0.98783724  0.66304880     0.74300
O1045       O  0.15915454  0.55403237  0.71918337    -0.59200
O1046       O  0.09587814  0.00199058  0.65319057    -0.49300
O1047       O  0.11185744  0.53296416  0.71948489    -0.55600
C1048       C  0.10961024  0.57583648  0.66495273     0.84500
O1049       O  0.15186759  0.54998806  0.62171525    -0.57500
O1050       O  0.13242639  0.00343654  0.67564651    -0.60800
In1051     In  0.41102518  0.53256800  0.67399351     1.36900
C1052       C  0.41062796  0.53247182  0.73742917     0.76900
O1053       O  0.36790938  0.98786336  0.68031552    -0.61500
O1054       O  0.40173394  0.99049824  0.65129522    -0.52500
C1055       C  0.38676417  0.55598134  0.64127357     0.69600
O1056       O  0.39383270  0.56133880  0.67037811    -0.47300
C1057       C  0.47014337  0.56733322  0.66409590     0.74300
O1058       O  0.39534104  0.53891951  0.72098533    -0.59200
O1059       O  0.45436938  0.54080530  0.65446097    -0.49300
O1060       O  0.42561071  0.52534851  0.72151020    -0.55600
C1061       C  0.37618616  0.97418997  0.66395224     0.84500
O1062       O  0.39301053  0.53914430  0.62813531    -0.57500
O1063       O  0.45547546  0.57659965  0.67639094    -0.60800
In1064     In  0.39951456  0.81132355  0.83400509     1.36900
C1065       C  0.40073365  0.81301629  0.77015033     0.76900
O1066       O  0.35831423  0.81197721  0.82820320    -0.61500
O1067       O  0.39614079  0.84848770  0.85188621    -0.52500
C1068       C  0.37241694  0.76242708  0.87067738     0.69600
O1069       O  0.37955567  0.76292562  0.84183911    -0.47300
C1070       C  0.45784415  0.83695746  0.84329228     0.74300
O1071       O  0.38261063  0.78955638  0.78549036    -0.59200
O1072       O  0.44385129  0.84683595  0.85618722    -0.49300
O1073       O  0.41763797  0.83542867  0.78736516    -0.55600
C1074       C  0.36996256  0.83719895  0.84094072     0.84500
O1075       O  0.37994374  0.78746753  0.88119310    -0.57500
O1076       O  0.44159785  0.81270326  0.82863472    -0.60800
In1077     In  0.41199190  0.53444694  0.83577812     1.36900
C1078       C  0.41111056  0.53338292  0.77234061     0.76900
O1079       O  0.45743783  0.57733507  0.83210725    -0.61500
O1080       O  0.45427086  0.54175159  0.85740101    -0.52500
C1081       C  0.38978124  0.55848853  0.87146034     0.69600
O1082       O  0.39721688  0.56534997  0.84261098    -0.47300
C1083       C  0.37736285  0.97563092  0.84146213     0.74300
O1084       O  0.39558538  0.53977472  0.78839316    -0.59200
O1085       O  0.40317909  0.99117998  0.85389983    -0.49300
O1086       O  0.42721225  0.52787898  0.78864604    -0.55600
C1087       C  0.47107290  0.56765251  0.84626611     0.84500
O1088       O  0.39401532  0.53941965  0.88241799    -0.57500
O1089       O  0.36832283  0.99025590  0.82845281    -0.60800
In1090     In  0.06255351  0.60988729  0.83603310     1.36900
C1091       C  0.06372761  0.61206704  0.77222602     0.76900
O1092       O  0.10340619  0.60861644  0.83005651    -0.61500
O1093       O  0.06541357  0.57216996  0.85333839    -0.52500
C1094       C  0.09041509  0.65855698  0.87268343     0.69600
O1095       O  0.08100066  0.65753314  0.84475175    -0.47300
C1096       C  0.50396637  0.58405132  0.84638547     0.74300
O1097       O  0.08131438  0.63441806  0.78930041    -0.59200
O1098       O  0.01802828  0.57336334  0.85707483    -0.49300
O1099       O  0.04606434  0.58865600  0.78767690    -0.55600
C1100       C  0.09160793  0.58334733  0.84267230     0.84500
O1101       O  0.08456434  0.63395235  0.88278436    -0.57500
O1102       O  0.02019916  0.60886895  0.83284706    -0.60800
In1103     In  0.13056791  0.53619523  0.83461906     1.36900
C1104       C  0.13447962  0.54010603  0.77076516     0.76900
O1105       O  0.12717125  0.99345392  0.82702980    -0.61500
O1106       O  0.09150441  0.99191310  0.85118662    -0.52500
C1107       C  0.17453531  0.55676387  0.87802445     0.69600
O1108       O  0.17937819  0.56253665  0.84853569    -0.47300
C1109       C  0.10642960  0.56738402  0.84269039     0.74300
O1110       O  0.15740732  0.55002448  0.78831905    -0.59200
O1111       O  0.09309051  0.54048295  0.85064390    -0.49300
O1112       O  0.11004969  0.52794997  0.78579087    -0.55600
C1113       C  0.10164365  0.97768989  0.83983804     0.84500
O1114       O  0.14719669  0.54064113  0.88552218    -0.57500
O1115       O  0.13283311  0.57889554  0.83265889    -0.60800
In1116     In  0.04923937  0.88697918  0.83055530     1.36900
C1117       C  0.05133715  0.89003508  0.76727213     0.76900
O1118       O  0.00377070  0.84489683  0.82537503    -0.61500
O1119       O  0.00760704  0.87902781  0.85429524    -0.52500
C1120       C  0.07124144  0.86202706  0.86451436     0.69600
O1121       O  0.06405907  0.85599233  0.83547749    -0.47300
C1122       C  0.08408547  0.94524751  0.83931973     0.74300
O1123       O  0.06523972  0.88160228  0.78322453    -0.59200
O1124       O  0.05775256  0.92949990  0.85022047    -0.49300
O1125       O  0.03605206  0.89652178  0.78359114    -0.55600
C1126       C  0.49059584  0.85370861  0.84187492     0.84500
O1127       O  0.06659025  0.88042424  0.87650519    -0.57500
O1128       O  0.09334234  0.93101629  0.82592453    -0.60800
C1129       C  0.33306478  0.61153049  0.57713631     0.85800
C1130       C  0.29993147  0.59956342  0.58318576    -0.54400
C1131       C  0.28935346  0.61419371  0.56723844     0.08700
C1132       C  0.31386675  0.64027067  0.54651573     0.19700
C1133       C  0.33316364  0.60935090  0.54069224    -0.55100
C1134       C  0.32459983  0.62529894  0.52396199     0.08800
C1135       C  0.35043455  0.64437109  0.58509051    -0.54700
C1136       C  0.34042658  0.65943351  0.57014132     0.09400
H1137       H  0.28519492  0.57984239  0.59720170     0.13900
H1138       H  0.30642969  0.65281291  0.53343122    -0.00300
H1139       H  0.33799883  0.59439364  0.52960946     0.14200
H1140       H  0.36783373  0.65449570  0.60342351     0.14000
C1141       C  0.33351855  0.61120439  0.93589538     0.85800
C1142       C  0.34304444  0.64174779  0.92357447    -0.54400
C1143       C  0.32977603  0.65391603  0.93845310     0.08700
C1144       C  0.30714469  0.63364530  0.96504572     0.19700
C1145       C  0.33891838  0.61504384  0.97160421    -0.55100
C1146       C  0.32452783  0.62539446  0.98780929     0.08800
C1147       C  0.29900762  0.59324873  0.93132336    -0.54700
C1148       C  0.28476094  0.60478406  0.94633919     0.09400
H1149       H  0.35658196  0.65170427  0.90218996     0.13900
H1150       H  0.29655661  0.64318449  0.97810130    -0.00300
H1151       H  0.35352489  0.60955647  0.98279494     0.14200
H1152       H  0.28725978  0.57439776  0.91505292     0.14000
C1153       C  0.13322984  0.82032177  0.56978270     0.85800
C1154       C  0.16627821  0.83148624  0.57617870    -0.54400
C1155       C  0.17553339  0.81506300  0.56165470     0.08700
C1156       C  0.14977369  0.78763578  0.54347079     0.19700
C1157       C  0.13031857  0.81798660  0.53370753    -0.55100
C1158       C  0.13818097  0.80072548  0.51912347     0.08800
C1159       C  0.11639340  0.78848977  0.58252022    -0.54700
C1160       C  0.12477082  0.77129808  0.56933069     0.09400
H1161       H  0.18078909  0.84939365  0.59252244     0.13900
H1162       H  0.15619803  0.77362753  0.53194289    -0.00300
H1163       H  0.12383551  0.83109206  0.52111321     0.14200
H1164       H  0.10071165  0.78082484  0.60237579     0.14000
C1165       C  0.12862895  0.81105103  0.93002281     0.85800
C1166       C  0.11917838  0.78025714  0.91898348    -0.54400
C1167       C  0.13244067  0.76862606  0.93512786     0.08700
C1168       C  0.15496903  0.78967679  0.96152805     0.19700
C1169       C  0.12289673  0.80806245  0.96561741    -0.55100
C1170       C  0.13739338  0.79838105  0.98305830     0.08800
C1171       C  0.16308246  0.82892021  0.92585486    -0.54700
C1172       C  0.17732894  0.81801221  0.94215791     0.09400
H1173       H  0.10556324  0.76959861  0.89771988     0.13900
H1174       H  0.16558593  0.78062581  0.97558716    -0.00300
H1175       H  0.10804116  0.81357914  0.97565419     0.14200
H1176       H  0.17475062  0.84691806  0.90861862     0.14000
C1177       C  0.08223483  0.80561769  0.90308111    -0.02500
C1178       C  0.11254651  0.82412263  0.91407723     0.07200
C1179       C  0.12558097  0.85529681  0.91507157    -0.02600
C1180       C  0.11231554  0.86762720  0.89829307    -0.02600
C1181       C  0.08465263  0.84899887  0.88270393     0.07300
C1182       C  0.06925804  0.81801330  0.88572448    -0.02800
Br1183     Br  0.02929352  0.79256027  0.86796333    -0.01400
Br1184     Br  0.05528882  0.76491015  0.91744982    -0.01500
Br1185     Br  0.13259285  0.91035569  0.89603904    -0.01400
Br1186     Br  0.15819197  0.88138641  0.94378603    -0.01400
C1187       C  0.23124448  0.56174264  0.93668283    -0.02500
C1188       C  0.25230613  0.59289634  0.93868068     0.07200
C1189       C  0.24304915  0.61140238  0.92734654    -0.02600
C1190       C  0.21722745  0.59928063  0.90779519    -0.02600
C1191       C  0.19914120  0.56861993  0.90174102     0.07300
C1192       C  0.20492280  0.54965347  0.91808959    -0.02800
Br1193     Br  0.17768262  0.50716041  0.91353753    -0.01400
Br1194     Br  0.23748716  0.53541995  0.96088190    -0.01500
Br1195     Br  0.20598155  0.62444971  0.88920739    -0.01400
Br1196     Br  0.26269460  0.65244133  0.93956515    -0.01400
C1197       C  0.13629743  0.74088306  0.88964191    -0.02500
C1198       C  0.12909868  0.74146300  0.92210211     0.07200
C1199       C  0.11447679  0.71505268  0.93998957    -0.02600
C1200       C  0.10259578  0.68752278  0.92452325    -0.02600
C1201       C  0.10698964  0.68671601  0.89119161     0.07300
C1202       C  0.12600374  0.71368676  0.87456956    -0.02800
Br1203     Br  0.13879130  0.71380934  0.83118797    -0.01400
Br1204     Br  0.16000084  0.77733210  0.86531490    -0.03100
Br1205     Br  0.07843944  0.65140291  0.94890299    -0.01400
Br1206     Br  0.11000862  0.71670145  0.98537999    -0.01400
C1207       C  0.35010925  0.55382618  0.90746709    -0.02500
C1208       C  0.37708881  0.57187830  0.89053312     0.07200
C1209       C  0.39243996  0.60296745  0.89250258    -0.02600
C1210       C  0.37980551  0.61589395  0.90943513    -0.02600
C1211       C  0.34979123  0.59774371  0.92119837     0.07300
C1212       C  0.33720730  0.56674554  0.92385190    -0.02800
Br1213     Br  0.30567741  0.54210836  0.95408769    -0.01400
Br1214     Br  0.33003781  0.51112284  0.90734978    -0.01500
Br1215     Br  0.40701928  0.65701474  0.92238811    -0.01400
Br1216     Br  0.43198255  0.62796114  0.87381222    -0.01400
C1217       C  0.32591349  0.68023969  0.89118421    -0.02500
C1218       C  0.33318522  0.68072974  0.92390124     0.07200
C1219       C  0.34849118  0.70786986  0.94047499    -0.02600
C1220       C  0.36132573  0.73486185  0.92353209    -0.02600
C1221       C  0.35651253  0.73457195  0.89002143     0.07300
C1222       C  0.33681560  0.70696106  0.87458032    -0.02800
Br1223     Br  0.32381535  0.70510727  0.83078380    -0.01400
Br1224     Br  0.30089637  0.64279680  0.86881473    -0.01500
Br1225     Br  0.38768243  0.77159900  0.94635028    -0.01400
Br1226     Br  0.35200504  0.70785633  0.98628944    -0.01400
C1227       C  0.38622272  0.58661287  0.59722310    -0.02500
C1228       C  0.37248763  0.56883956  0.62438959     0.07200
C1229       C  0.34750931  0.56678554  0.63816411    -0.02600
C1230       C  0.33618025  0.58244564  0.62479408    -0.02600
C1231       C  0.34702474  0.59697529  0.59464637     0.07300
C1232       C  0.37420364  0.60129031  0.58285350    -0.02800
Br1233     Br  0.39842872  0.63059331  0.55018974    -0.01400
Br1234     Br  0.42308570  0.59270992  0.58119879    -0.01500
Br1235     Br  0.31231117  0.58966288  0.65298836    -0.01400
Br1236     Br  0.32848117  0.54217835  0.67564475    -0.01400
C1237       C  0.22215456  0.61155248  0.59915946    -0.02500
C1238       C  0.20349394  0.58088163  0.60558227     0.07200
C1239       C  0.20897629  0.56134053  0.59007957    -0.02600
C1240       C  0.23514769  0.57279611  0.57176944    -0.02600
C1241       C  0.25700076  0.60377418  0.57067505     0.07300
C1242       C  0.24854107  0.62302594  0.58085721    -0.02800
Br1243     Br  0.27143792  0.66443654  0.56923377    -0.01400
Br1244     Br  0.21140325  0.63762752  0.61572035    -0.01500
Br1245     Br  0.24147255  0.54594377  0.54855331    -0.01400
Br1246     Br  0.18261260  0.51899218  0.59679172    -0.01400
C1247       C  0.08133749  0.68897250  0.58996006    -0.02500
C1248       C  0.09727567  0.68931743  0.61719226     0.07200
C1249       C  0.12223465  0.71658487  0.62842368    -0.02600
C1250       C  0.13008870  0.74333362  0.61380664    -0.02600
C1251       C  0.11563027  0.74289848  0.58520324     0.07300
C1252       C  0.09019813  0.71580299  0.57442399    -0.02800
Br1253     Br  0.06442444  0.71618357  0.54238556    -0.01400
Br1254     Br  0.04603929  0.65217834  0.57516868    -0.01500
Br1255     Br  0.15831391  0.78032553  0.63549152    -0.01400
Br1256     Br  0.14689240  0.71742029  0.66286638    -0.01400
C1257       C  0.25744292  0.86524996  0.58137432    -0.02500
C1258       C  0.26086767  0.84623263  0.60113793     0.07200
C1259       C  0.23978643  0.81524980  0.59878008    -0.02600
C1260       C  0.21364455  0.80376223  0.57989997    -0.02600
C1261       C  0.20716240  0.82345060  0.56616084     0.07300
C1262       C  0.23077221  0.85373153  0.56373460    -0.02800
Br1263     Br  0.22651165  0.87933755  0.53574447    -0.01400
Br1264     Br  0.28756710  0.90750502  0.58074985    -0.01500
Br1265     Br  0.18898051  0.76171231  0.57143743    -0.01400
Br1266     Br  0.24669173  0.78854680  0.62148123    -0.01400
C1267       C  0.07579136  0.83735269  0.59743689    -0.02500
C1268       C  0.09441497  0.86504856  0.61231281     0.07200
C1269       C  0.12567458  0.88098473  0.60834582    -0.02600
C1270       C  0.13848750  0.86808844  0.59171301    -0.02600
C1271       C  0.12030438  0.83765913  0.58257038     0.07300
C1272       C  0.08851488  0.82387711  0.58202743    -0.02800
Br1273     Br  0.06163805  0.78793216  0.55774395    -0.01400
Br1274     Br  0.03263851  0.81756120  0.59888731    -0.01500
Br1275     Br  0.17796379  0.89495195  0.57405897    -0.01400
Br1276     Br  0.15056623  0.92153383  0.62346002    -0.01400
C1277       C  0.23067013  0.86026600  0.93073299    -0.02500
C1278       C  0.20945900  0.82928804  0.93426787     0.07200
C1279       C  0.21768791  0.81001419  0.92312940    -0.02600
C1280       C  0.24221199  0.82084993  0.90210718    -0.02600
C1281       C  0.26114924  0.85143166  0.89568934     0.07300
C1282       C  0.25642335  0.87129101  0.91169691    -0.02800
Br1283     Br  0.28390661  0.91364170  0.90557052    -0.01400
Br1284     Br  0.22536017  0.88801287  0.95298948    -0.01500
Br1285     Br  0.25006735  0.79372132  0.88209689    -0.01400
Br1286     Br  0.19906874  0.76998095  0.93853050    -0.01400
C1287       C  0.38710566  0.74225159  0.58764635    -0.02500
C1288       C  0.37102596  0.74345483  0.61365317     0.07200
C1289       C  0.34461513  0.71731836  0.62440709    -0.02600
C1290       C  0.33541162  0.68993933  0.61080795    -0.02600
C1291       C  0.34984872  0.68876222  0.58317495     0.07300
C1292       C  0.37665263  0.71480138  0.57263427    -0.02800
Br1293     Br  0.40177265  0.71192352  0.54190720    -0.01400
Br1294     Br  0.42477910  0.77744572  0.57452862    -0.01500
Br1295     Br  0.30700915  0.65438545  0.63440733    -0.01400
Br1296     Br  0.32059418  0.71873184  0.65794472    -0.01400
In1297     In  0.90567276  0.31736052  0.17120900     1.36900
C1298       C  0.90238555  0.31441019  0.23505299     0.76900
O1299       O  0.94899316  0.32026341  0.17449928    -0.61500
O1300       O  0.94972696  0.35613079  0.15292892    -0.52500
C1301       C  0.88382665  0.27046441  0.13330938     0.69600
O1302       O  0.88566812  0.26951777  0.16330036    -0.47300
C1303       C  0.87297317  0.33966351  0.16141907     0.74300
O1304       O  0.88731507  0.29183114  0.21744938    -0.59200
O1305       O  0.89987322  0.35274139  0.15245371    -0.49300
O1306       O  0.91920505  0.33842350  0.22011516    -0.55600
C1307       C  0.96444129  0.34564558  0.16192540     0.84500
O1308       O  0.89347952  0.29587062  0.12212664    -0.57500
O1309       O  0.86219392  0.31439389  0.17354791    -0.60800
In1310     In  0.83145916  0.38473104  0.33128296     1.36900
C1311       C  0.82884505  0.38390213  0.26711578     0.76900
O1312       O  0.83438400  0.42763615  0.32735983    -0.61500
O1313       O  0.87091419  0.42865060  0.34884539    -0.52500
C1314       C  0.78623112  0.36270560  0.37285987     0.69600
O1315       O  0.78242330  0.35460360  0.34393941    -0.47300
C1316       C  0.85513826  0.35314838  0.34048790     0.74300
O1317       O  0.80574605  0.37401913  0.28418830    -0.59200
O1318       O  0.86792254  0.37964295  0.34979433    -0.49300
O1319       O  0.85284658  0.39446618  0.28277670    -0.55600
C1320       C  0.86019282  0.44311454  0.33984130     0.84500
O1321       O  0.81313375  0.38148791  0.38063590    -0.57500
O1322       O  0.82946997  0.34219144  0.32844536    -0.60800
In1323     In  0.55602591  0.39703506  0.16926611     1.36900
C1324       C  0.55303276  0.39243766  0.23246770     0.76900
O1325       O  0.59868795  0.44149151  0.17682736    -0.61500
O1326       O  0.56404987  0.43957086  0.14984938    -0.52500
C1327       C  0.58112638  0.37723053  0.13205965     0.69600
O1328       O  0.58597005  0.38116756  0.16171056    -0.47300
C1329       C  0.99721341  0.36274966  0.16073628     0.74300
O1330       O  0.56524516  0.38271160  0.21570284    -0.59200
O1331       O  0.51283492  0.38939162  0.15145662    -0.49300
O1332       O  0.54248852  0.40457623  0.21699262    -0.55600
C1333       C  0.58966587  0.45551318  0.16250187     0.84500
O1334       O  0.56354946  0.38370470  0.12106030    -0.57500
O1335       O  0.51193273  0.35282889  0.17158952    -0.60800
In1336     In  0.83044791  0.38319058  0.16778360     1.36900
C1337       C  0.82850560  0.38321717  0.23182281     0.76900
O1338       O  0.83075153  0.34208181  0.17266934    -0.61500
O1339       O  0.86801493  0.37991418  0.15024460    -0.52500
C1340       C  0.78576841  0.35878827  0.12473460     0.69600
O1341       O  0.78166445  0.35174051  0.15399622    -0.47300
C1342       C  0.85852829  0.44168835  0.16223910     0.74300
O1343       O  0.80524649  0.37368210  0.21486329    -0.59200
O1344       O  0.86863230  0.42769944  0.15008540    -0.49300
O1345       O  0.85210166  0.39229482  0.21607926    -0.55600
C1346       C  0.85649866  0.35389721  0.16060129     0.84500
O1347       O  0.81266712  0.37805628  0.11754233    -0.57500
O1348       O  0.83304317  0.42559623  0.17509555    -0.60800
In1349     In  0.56208787  0.11386542  0.17341685     1.36900
C1350       C  0.56344510  0.11301648  0.23716051     0.76900
O1351       O  0.51828371  0.10966723  0.17870663    -0.61500
O1352       O  0.51822930  0.07613445  0.15250211    -0.52500
C1353       C  0.58542613  0.16221221  0.13679964     0.69600
O1354       O  0.58241726  0.16237612  0.16670331    -0.47300
C1355       C  0.59394706  0.09080875  0.16503068     0.74300
O1356       O  0.57879621  0.13675792  0.22131881    -0.59200
O1357       O  0.56773038  0.07879151  0.15402789    -0.49300
O1358       O  0.54746563  0.08994013  0.22049673    -0.55600
C1359       C  0.00306250  0.08514172  0.16423874     0.84500
O1360       O  0.57678777  0.13713519  0.12535387    -0.57500
O1361       O  0.60471318  0.11566673  0.17823880    -0.60800
In1362     In  0.63447917  0.04554504  0.17177124     1.36900
C1363       C  0.63541317  0.04247512  0.23562008     0.76900
O1364       O  0.63510147  0.08700574  0.17761153    -0.61500
O1365       O  0.59762251  0.04985467  0.15430848    -0.52500
C1366       C  0.67880016  0.06917812  0.12898752     0.69600
O1367       O  0.68313512  0.07680072  0.15811115    -0.47300
C1368       C  0.60668620  0.48783685  0.16304885     0.74300
O1369       O  0.65915432  0.05403184  0.21918331    -0.59200
O1370       O  0.59587779  0.50199019  0.15319074    -0.49300
O1371       O  0.61185720  0.03296355  0.21948476    -0.55600
C1372       C  0.60961015  0.07583610  0.16495241     0.84500
O1373       O  0.65186754  0.04998732  0.12171528    -0.57500
O1374       O  0.63242609  0.50343610  0.17564653    -0.60800
In1375     In  0.91102526  0.03256803  0.17399280     1.36900
C1376       C  0.91062803  0.03247178  0.23742844     0.76900
O1377       O  0.86790967  0.48786346  0.18031605    -0.61500
O1378       O  0.90173333  0.49049865  0.15129382    -0.52500
C1379       C  0.88676471  0.05598190  0.14127313     0.69600
O1380       O  0.89383335  0.06133928  0.17037766    -0.47300
C1381       C  0.97014358  0.06733295  0.16409556     0.74300
O1382       O  0.89534089  0.03891917  0.22098457    -0.59200
O1383       O  0.95436955  0.04080489  0.15446108    -0.49300
O1384       O  0.92561096  0.02534865  0.22150950    -0.55600
C1385       C  0.87618599  0.47419023  0.16395171     0.84500
O1386       O  0.89301084  0.03914475  0.12813471    -0.57500
O1387       O  0.95547565  0.07659962  0.17639001    -0.60800
In1388     In  0.89951446  0.31132368  0.33400513     1.36900
C1389       C  0.90073357  0.31301650  0.27015039     0.76900
O1390       O  0.85831417  0.31197743  0.32820327    -0.61500
O1391       O  0.89614083  0.34848797  0.35188610    -0.52500
C1392       C  0.87241717  0.26242725  0.37067753     0.69600
O1393       O  0.87955605  0.26292585  0.34183930    -0.47300
C1394       C  0.95784403  0.33695768  0.34329229     0.74300
O1395       O  0.88261029  0.28955666  0.28549038    -0.59200
O1396       O  0.94385111  0.34683609  0.35618727    -0.49300
O1397       O  0.91763810  0.33542880  0.28736524    -0.55600
C1398       C  0.86996257  0.33719923  0.34094065     0.84500
O1399       O  0.87994363  0.28746762  0.38119317    -0.57500
O1400       O  0.94159779  0.31270346  0.32863471    -0.60800
In1401     In  0.91199218  0.03444726  0.33577750     1.36900
C1402       C  0.91111071  0.03338308  0.27233990     0.76900
O1403       O  0.95743817  0.07733563  0.33210752    -0.61500
O1404       O  0.95427116  0.04175141  0.35739967    -0.52500
C1405       C  0.88978144  0.05848887  0.37145970     0.69600
O1406       O  0.89721709  0.06535026  0.34261033    -0.47300
C1407       C  0.87736291  0.47563119  0.34146223     0.74300
O1408       O  0.89558493  0.03977411  0.28839245    -0.59200
O1409       O  0.90317908  0.49118024  0.35390003    -0.49300
O1410       O  0.92721310  0.02788008  0.28864534    -0.55600
C1411       C  0.97107323  0.06765266  0.34626562     0.84500
O1412       O  0.89401568  0.03942011  0.38241742    -0.57500
O1413       O  0.86832289  0.49025613  0.32845284    -0.60800
In1414     In  0.56255384  0.10988729  0.33603273     1.36900
C1415       C  0.56372782  0.11206684  0.27222558     0.76900
O1416       O  0.60340641  0.10861619  0.33005652    -0.61500
O1417       O  0.56541350  0.07216972  0.35333802    -0.52500
C1418       C  0.59041552  0.15855697  0.37268321     0.69600
O1419       O  0.58100124  0.15753320  0.34475147    -0.47300
C1420       C  0.00396671  0.08405140  0.34638504     0.74300
O1421       O  0.58131455  0.13441794  0.28929994    -0.59200
O1422       O  0.51802860  0.07336345  0.35707437    -0.49300
O1423       O  0.54606465  0.08865584  0.28767651    -0.55600
C1424       C  0.59160795  0.08334702  0.34267222     0.84500
O1425       O  0.58456464  0.13395229  0.38278412    -0.57500
O1426       O  0.52019966  0.10886930  0.33284692    -0.60800
In1427     In  0.63056774  0.03619466  0.33461907     1.36900
C1428       C  0.63447936  0.04010542  0.27076510     0.76900
O1429       O  0.62717125  0.49345371  0.32702908    -0.61500
O1430       O  0.59150469  0.49191280  0.35118666    -0.52500
C1431       C  0.67453513  0.05676343  0.37802456     0.69600
O1432       O  0.67937802  0.06253642  0.34853583    -0.47300
C1433       C  0.60642950  0.06738356  0.34269043     0.74300
O1434       O  0.65740702  0.05002365  0.28831898    -0.59200
O1435       O  0.59309026  0.04048243  0.35064374    -0.49300
O1436       O  0.61004945  0.02794956  0.28579084    -0.55600
C1437       C  0.60164381  0.47768962  0.33983766     0.84500
O1438       O  0.64719651  0.04064033  0.38552221    -0.57500
O1439       O  0.63283307  0.07889504  0.33265914    -0.60800
In1440     In  0.54923932  0.38697880  0.33055503     1.36900
C1441       C  0.55133705  0.39003439  0.26727182     0.76900
O1442       O  0.50377046  0.34489655  0.32537498    -0.61500
O1443       O  0.50760696  0.37902790  0.35429459    -0.52500
C1444       C  0.57124131  0.36202660  0.36451418     0.69600
O1445       O  0.56405922  0.35599211  0.33547722    -0.47300
C1446       C  0.58408568  0.44524721  0.33931935     0.74300
O1447       O  0.56523930  0.38160120  0.28322425    -0.59200
O1448       O  0.55775299  0.42949958  0.35022068    -0.49300
O1449       O  0.53605238  0.39652157  0.28359082    -0.55600
C1450       C  0.99059574  0.35370891  0.34187490     0.84500
O1451       O  0.56658986  0.38042359  0.37650508    -0.57500
O1452       O  0.59334229  0.43101599  0.32592364    -0.60800
C1453       C  0.83306497  0.11153071  0.07713626     0.85800
C1454       C  0.79993163  0.09956358  0.08318573    -0.54400
C1455       C  0.78935350  0.11419373  0.06723841     0.08700
C1456       C  0.81386675  0.14027071  0.04651564     0.19700
C1457       C  0.83316380  0.10935106  0.04069221    -0.55100
C1458       C  0.82459987  0.12529896  0.02396194     0.08800
C1459       C  0.85043470  0.14437131  0.08509038    -0.54700
C1460       C  0.84042662  0.15943361  0.07014122     0.09400
H1461       H  0.78519509  0.07984253  0.09720187     0.13900
H1462       H  0.80642970  0.15281288  0.03343114    -0.00300
H1463       H  0.83799905  0.09439381  0.02960948     0.14200
H1464       H  0.86783392  0.15449597  0.10342334     0.14000
C1465       C  0.83351837  0.11120427  0.43589517     0.85800
C1466       C  0.84304428  0.14174770  0.42357431    -0.54400
C1467       C  0.82977594  0.15391597  0.43845297     0.08700
C1468       C  0.80714454  0.13364524  0.46504556     0.19700
C1469       C  0.83891815  0.11504368  0.47160402    -0.55100
C1470       C  0.82452760  0.12539431  0.48780913     0.08800
C1471       C  0.79900744  0.09324865  0.43132317    -0.54700
C1472       C  0.78476081  0.10478401  0.44633902     0.09400
H1473       H  0.85658185  0.15170422  0.40218981     0.13900
H1474       H  0.79655648  0.14318441  0.47810108    -0.00300
H1475       H  0.85352466  0.10955628  0.48279475     0.14200
H1476       H  0.78725952  0.07439758  0.41505278     0.14000
C1477       C  0.63322992  0.32032179  0.06978250     0.85800
C1478       C  0.66627829  0.33148633  0.07617840    -0.54400
C1479       C  0.67553349  0.31506311  0.06165439     0.08700
C1480       C  0.64977379  0.28763584  0.04347058     0.19700
C1481       C  0.63031849  0.31798653  0.03370730    -0.55100
C1482       C  0.63818097  0.30072543  0.01912327     0.08800
C1483       C  0.61639361  0.28848988  0.08252018    -0.54700
C1484       C  0.62477105  0.27129820  0.06933065     0.09400
H1485       H  0.68078915  0.34939367  0.09252223     0.13900
H1486       H  0.65619812  0.27362758  0.03194269    -0.00300
H1487       H  0.62383543  0.33109182  0.02111316     0.14200
H1488       H  0.60071196  0.28082500  0.10237585     0.14000
C1489       C  0.62862892  0.31105065  0.43002276     0.85800
C1490       C  0.61917871  0.28025691  0.41898328    -0.54400
C1491       C  0.63244111  0.26862598  0.43512771     0.08700
C1492       C  0.65496926  0.28967670  0.46152804     0.19700
C1493       C  0.62289649  0.30806186  0.46561736    -0.55100
C1494       C  0.63739337  0.29838067  0.48305822     0.08800
C1495       C  0.66308249  0.32892014  0.42585499    -0.54700
C1496       C  0.67732909  0.31801223  0.44215805     0.09400
H1497       H  0.60556370  0.26959835  0.39771957     0.13900
H1498       H  0.66558623  0.28062583  0.47558719    -0.00300
H1499       H  0.60804093  0.31357837  0.47565410     0.14200
H1500       H  0.67475056  0.34691808  0.40861899     0.14000
C1501       C  0.58223490  0.30561723  0.40308068    -0.02500
C1502       C  0.61254641  0.32412220  0.41407718     0.07200
C1503       C  0.62558058  0.35529628  0.41507191    -0.02600
C1504       C  0.61231520  0.36762668  0.39829327    -0.02600
C1505       C  0.58465250  0.34899838  0.38270375     0.07300
C1506       C  0.56925809  0.31801281  0.38572402    -0.02800
Br1507     Br  0.52929374  0.29255967  0.36796262    -0.01400
Br1508     Br  0.55528907  0.26490965  0.41744915    -0.01500
Br1509     Br  0.63259222  0.41035511  0.39603960    -0.01400
Br1510     Br  0.65819082  0.38138559  0.44378725    -0.01400
C1511       C  0.73124436  0.06174255  0.43668314    -0.02500
C1512       C  0.75230599  0.09289626  0.43868072     0.07200
C1513       C  0.74304902  0.11140224  0.42734637    -0.02600
C1514       C  0.71722727  0.09928038  0.40779511    -0.02600
C1515       C  0.69914100  0.06861962  0.40174116     0.07300
C1516       C  0.70492268  0.04965326  0.41808988    -0.02800
Br1517     Br  0.67768269  0.00716019  0.41353802    -0.01400
Br1518     Br  0.73748722  0.03542002  0.46088239    -0.01500
Br1519     Br  0.70598144  0.12444948  0.38920718    -0.01400
Br1520     Br  0.76269466  0.15244136  0.43956450    -0.01400
C1521       C  0.63629803  0.24088308  0.38964181    -0.02500
C1522       C  0.62909930  0.24146300  0.42210201     0.07200
C1523       C  0.61447734  0.21505267  0.43998941    -0.02600
C1524       C  0.60259606  0.18752276  0.42452305    -0.02600
C1525       C  0.60699001  0.18671600  0.39119142     0.07300
C1526       C  0.62600420  0.21368679  0.37456940    -0.02800
Br1527     Br  0.63879181  0.21380955  0.33118779    -0.01400
Br1528     Br  0.66000164  0.27733217  0.36531495    -0.03100
Br1529     Br  0.57843931  0.15140296  0.44890276    -0.01400
Br1530     Br  0.61000959  0.21670150  0.48537986    -0.01400
C1531       C  0.85010914  0.05382626  0.40746623    -0.02500
C1532       C  0.87708881  0.07187851  0.39053244     0.07200
C1533       C  0.89243994  0.10296764  0.39250219    -0.02600
C1534       C  0.87980541  0.11589399  0.40943490    -0.02600
C1535       C  0.84979110  0.09774367  0.42119805     0.07300
C1536       C  0.83720716  0.06674549  0.42385125    -0.02800
Br1537     Br  0.80567751  0.04210821  0.45408722    -0.01400
Br1538     Br  0.83003770  0.01112292  0.40734860    -0.01500
Br1539     Br  0.90701908  0.15701462  0.42238839    -0.01400
Br1540     Br  0.93198272  0.12796144  0.37381226    -0.01400
C1541       C  0.82591371  0.18023985  0.39118415    -0.02500
C1542       C  0.83318532  0.18072978  0.42390119     0.07200
C1543       C  0.84849127  0.20786984  0.44047503    -0.02600
C1544       C  0.86132583  0.23486188  0.42353223    -0.02600
C1545       C  0.85651281  0.23457209  0.39002154     0.07300
C1546       C  0.83681595  0.20696126  0.37458034    -0.02800
Br1547     Br  0.82381590  0.20510757  0.33078379    -0.01400
Br1548     Br  0.80089638  0.14279707  0.36881456    -0.01500
Br1549     Br  0.88768222  0.27159891  0.44635058    -0.01400
Br1550     Br  0.85200479  0.20785616  0.48628951    -0.01400
C1551       C  0.88622307  0.08661336  0.09722275    -0.02500
C1552       C  0.87248819  0.06884022  0.12438939     0.07200
C1553       C  0.84751002  0.06678634  0.13816415    -0.02600
C1554       C  0.83618081  0.08244627  0.12479407    -0.02600
C1555       C  0.84702510  0.09697572  0.09464627     0.07300
C1556       C  0.87420401  0.10129083  0.08285328    -0.02800
Br1557     Br  0.89842909  0.13059399  0.05018957    -0.01400
Br1558     Br  0.92308580  0.09271021  0.08119806    -0.01500
Br1559     Br  0.81231194  0.08966379  0.15298837    -0.01400
Br1560     Br  0.82848236  0.04217972  0.17564526    -0.01400
C1561       C  0.72215441  0.11155224  0.09915950    -0.02500
C1562       C  0.70349384  0.08088137  0.10558223     0.07200
C1563       C  0.70897620  0.06134032  0.09007935    -0.02600
C1564       C  0.73514770  0.07279602  0.07176932    -0.02600
C1565       C  0.75700074  0.10377412  0.07067503     0.07300
C1566       C  0.74854094  0.12302579  0.08085722    -0.02800
Br1567     Br  0.77143764  0.16443637  0.06923360    -0.01400
Br1568     Br  0.71140289  0.13762714  0.11572037    -0.01500
Br1569     Br  0.74147293  0.04594383  0.04855337    -0.01400
Br1570     Br  0.68261229  0.01899186  0.09679103    -0.01400
C1571       C  0.58133761  0.18897273  0.08996017    -0.02500
C1572       C  0.59727581  0.18931761  0.11719231     0.07200
C1573       C  0.62223483  0.21658502  0.12842371    -0.02600
C1574       C  0.63008897  0.24333378  0.11380665    -0.02600
C1575       C  0.61563054  0.24289865  0.08520324     0.07300
C1576       C  0.59019832  0.21580321  0.07442404    -0.02800
Br1577     Br  0.56442463  0.21618383  0.04238563    -0.01400
Br1578     Br  0.54603911  0.15217863  0.07516918    -0.01500
Br1579     Br  0.65831419  0.28032565  0.13549156    -0.01400
Br1580     Br  0.64689266  0.21742034  0.16286624    -0.01400
C1581       C  0.75744298  0.36525003  0.08137398    -0.02500
C1582       C  0.76086776  0.34623268  0.10113755     0.07200
C1583       C  0.73978645  0.31524985  0.09877981    -0.02600
C1584       C  0.71364458  0.30376232  0.07989972    -0.02600
C1585       C  0.70716248  0.32345071  0.06616053     0.07300
C1586       C  0.73077229  0.35373164  0.06373426    -0.02800
Br1587     Br  0.72651166  0.37933778  0.03574430    -0.01400
Br1588     Br  0.78756717  0.40750508  0.08074943    -0.01500
Br1589     Br  0.68898056  0.26171239  0.07143721    -0.01400
Br1590     Br  0.74669152  0.28854670  0.12148105    -0.01400
C1591       C  0.57579145  0.33735283  0.09743635    -0.02500
C1592       C  0.59441510  0.36504889  0.11231192     0.07200
C1593       C  0.62567471  0.38098504  0.10834492    -0.02600
C1594       C  0.63848762  0.36808859  0.09171243    -0.02600
C1595       C  0.62030446  0.33765920  0.08257005     0.07300
C1596       C  0.58851495  0.32387712  0.08202716    -0.02800
Br1597     Br  0.56163804  0.28793181  0.05774425    -0.01400
Br1598     Br  0.53263852  0.31756110  0.09888711    -0.01500
Br1599     Br  0.67796406  0.39495200  0.07405872    -0.01400
Br1600     Br  0.65056635  0.42153432  0.12345862    -0.01400
C1601       C  0.73067016  0.36026626  0.43073318    -0.02500
C1602       C  0.70945921  0.32928828  0.43426814     0.07200
C1603       C  0.71768835  0.31001457  0.42312978    -0.02600
C1604       C  0.74221248  0.32085045  0.40210761    -0.02600
C1605       C  0.76114952  0.35143217  0.39568962     0.07300
C1606       C  0.75642337  0.37129140  0.41169702    -0.02800
Br1607     Br  0.78390609  0.41364205  0.40557008    -0.01400
Br1608     Br  0.72535986  0.38801296  0.45298950    -0.01500
Br1609     Br  0.75006797  0.29372200  0.38209718    -0.01400
Br1610     Br  0.69906932  0.26998129  0.43853076    -0.01400
C1611       C  0.88710544  0.24225150  0.08764692    -0.02500
C1612       C  0.87102553  0.24345457  0.11365362     0.07200
C1613       C  0.84461461  0.21731803  0.12440720    -0.02600
C1614       C  0.83541131  0.18993910  0.11080794    -0.02600
C1615       C  0.84984858  0.18876222  0.08317498     0.07300
C1616       C  0.87665252  0.21480147  0.07263456    -0.02800
Br1617     Br  0.90177277  0.21192399  0.04190747    -0.01400
Br1618     Br  0.92477911  0.27744564  0.07452981    -0.01500
Br1619     Br  0.80700894  0.15438508  0.13440716    -0.01400
Br1620     Br  0.82059311  0.21873123  0.15794431    -0.01400
In1621     In  0.90567298  0.31736048  0.67120892     1.36900
C1622       C  0.90238568  0.31441006  0.73505290     0.76900
O1623       O  0.94899352  0.32026373  0.67449969    -0.61500
O1624       O  0.94972713  0.35613085  0.65292888    -0.52500
C1625       C  0.88382712  0.27046454  0.63330901     0.69600
O1626       O  0.88566893  0.26951788  0.66329994    -0.47300
C1627       C  0.87297337  0.33966345  0.66141921     0.74300
O1628       O  0.88731522  0.29183101  0.71744929    -0.59200
O1629       O  0.89987337  0.35274130  0.65245365    -0.49300
O1630       O  0.91920506  0.33842341  0.72011508    -0.55600
C1631       C  0.96444156  0.34564583  0.66192567     0.84500
O1632       O  0.89347958  0.29587071  0.62212641    -0.57500
O1633       O  0.86219419  0.31439387  0.67354815    -0.60800
In1634     In  0.83145926  0.38473072  0.83128297     1.36900
C1635       C  0.82884499  0.38390173  0.76711587     0.76900
O1636       O  0.83438408  0.42763581  0.82735985    -0.61500
O1637       O  0.87091437  0.42865031  0.84884522    -0.52500
C1638       C  0.78623116  0.36270522  0.87285979     0.69600
O1639       O  0.78242332  0.35460332  0.84393929    -0.47300
C1640       C  0.85513859  0.35314825  0.84048786     0.74300
O1641       O  0.80574597  0.37401843  0.78418842    -0.59200
O1642       O  0.86792281  0.37964281  0.84979431    -0.49300
O1643       O  0.85284662  0.39446617  0.78277671    -0.55600
C1644       C  0.86019294  0.44311422  0.83984126     0.84500
O1645       O  0.81313380  0.38148738  0.88063590    -0.57500
O1646       O  0.82947030  0.34219127  0.82844534    -0.60800
In1647     In  0.55602616  0.39703535  0.66926587     1.36900
C1648       C  0.55303305  0.39243799  0.73246745     0.76900
O1649       O  0.59868815  0.44149179  0.67682716    -0.61500
O1650       O  0.56405018  0.43957110  0.64984889    -0.52500
C1651       C  0.58112667  0.37723087  0.63205939     0.69600
O1652       O  0.58597037  0.38116792  0.66171029    -0.47300
C1653       C  0.99721368  0.36275000  0.66073657     0.74300
O1654       O  0.56524509  0.38271155  0.71570257    -0.59200
O1655       O  0.51283506  0.38939191  0.65145680    -0.49300
O1656       O  0.54248922  0.40457693  0.71699238    -0.55600
C1657       C  0.58966610  0.45551344  0.66250154     0.84500
O1658       O  0.56354971  0.38370499  0.62106006    -0.57500
O1659       O  0.51193301  0.35282918  0.67158946    -0.60800
In1660     In  0.83044792  0.38319037  0.66778378     1.36900
C1661       C  0.82850549  0.38321674  0.73182293     0.76900
O1662       O  0.83075158  0.34208157  0.67266928    -0.61500
O1663       O  0.86801514  0.37991417  0.65024507    -0.52500
C1664       C  0.78576838  0.35878802  0.62473479     0.69600
O1665       O  0.78166439  0.35174038  0.65399645    -0.47300
C1666       C  0.85852831  0.44168819  0.66223937     0.74300
O1667       O  0.80524634  0.37368150  0.71486342    -0.59200
O1668       O  0.86863219  0.42769928  0.65008544    -0.49300
O1669       O  0.85210161  0.39229466  0.71607940    -0.55600
C1670       C  0.85649882  0.35389711  0.66060149     0.84500
O1671       O  0.81266710  0.37805593  0.61754251    -0.57500
O1672       O  0.83304326  0.42559607  0.67509602    -0.60800
In1673     In  0.56208773  0.11386553  0.67341696     1.36900
C1674       C  0.56344503  0.11301649  0.73716058     0.76900
O1675       O  0.51828353  0.10966724  0.67870718    -0.61500
O1676       O  0.51822921  0.07613490  0.65250180    -0.52500
C1677       C  0.58542595  0.16221232  0.63679983     0.69600
O1678       O  0.58241696  0.16237620  0.66670348    -0.47300
C1679       C  0.59394687  0.09080883  0.66503062     0.74300
O1680       O  0.57879642  0.13675793  0.72131891    -0.59200
O1681       O  0.56773005  0.07879145  0.65402819    -0.49300
O1682       O  0.54746535  0.08994021  0.72049677    -0.55600
C1683       C  0.00306234  0.08514177  0.66423883     0.84500
O1684       O  0.57678768  0.13713531  0.62535406    -0.57500
O1685       O  0.60471312  0.11566694  0.67823848    -0.60800
In1686     In  0.63447910  0.04554519  0.67177121     1.36900
C1687       C  0.63541313  0.04247542  0.73562009     0.76900
O1688       O  0.63510154  0.08700606  0.67761084    -0.61500
O1689       O  0.59762209  0.04985454  0.65430894    -0.52500
C1690       C  0.67880010  0.06917822  0.62898755     0.69600
O1691       O  0.68313508  0.07680077  0.65811119    -0.47300
C1692       C  0.60668637  0.48783711  0.66304868     0.74300
O1693       O  0.65915428  0.05403229  0.71918334    -0.59200
O1694       O  0.59587797  0.50199044  0.65319045    -0.49300
O1695       O  0.61185714  0.03296365  0.71948474    -0.55600
C1696       C  0.60960996  0.07583618  0.66495230     0.84500
O1697       O  0.65186747  0.04998748  0.62171527    -0.57500
O1698       O  0.63242614  0.50343637  0.67564660    -0.60800
In1699     In  0.91102513  0.03256783  0.67399288     1.36900
C1700       C  0.91062786  0.03247150  0.73742858     0.76900
O1701       O  0.86790946  0.48786336  0.68031576    -0.61500
O1702       O  0.90173357  0.49049840  0.65129447    -0.52500
C1703       C  0.88676448  0.05598155  0.64127303     0.69600
O1704       O  0.89383275  0.06133870  0.67037766    -0.47300
C1705       C  0.97014342  0.06733295  0.66409562     0.74300
O1706       O  0.89534085  0.03891904  0.72098469    -0.59200
O1707       O  0.95436946  0.04080493  0.65446103    -0.49300
O1708       O  0.92561074  0.02534831  0.72150963    -0.55600
C1709       C  0.87618601  0.47419005  0.66395196     0.84500
O1710       O  0.89301097  0.03914465  0.62813464    -0.57500
O1711       O  0.95547544  0.07659951  0.67639018    -0.60800
In1712     In  0.89951482  0.31132360  0.83400510     1.36900
C1713       C  0.90073385  0.31301641  0.77015033     0.76900
O1714       O  0.85831451  0.31197731  0.82820324    -0.61500
O1715       O  0.89614120  0.34848786  0.85188603    -0.52500
C1716       C  0.87241737  0.26242720  0.87067753     0.69600
O1717       O  0.87955616  0.26292576  0.84183928    -0.47300
C1718       C  0.95784439  0.33695752  0.84329224     0.74300
O1719       O  0.88261078  0.28955651  0.78549037    -0.59200
O1720       O  0.94385151  0.34683595  0.85618725    -0.49300
O1721       O  0.91763826  0.33542875  0.78736516    -0.55600
C1722       C  0.86996293  0.33719912  0.84094061     0.84500
O1723       O  0.87994404  0.28746763  0.88119321    -0.57500
O1724       O  0.94159812  0.31270333  0.82863464    -0.60800
In1725     In  0.91199187  0.03444694  0.83577761     1.36900
C1726       C  0.91111047  0.03338273  0.77234005     0.76900
O1727       O  0.95743782  0.07733526  0.83210721    -0.61500
O1728       O  0.95427083  0.04175138  0.85740012    -0.52500
C1729       C  0.88978126  0.05848861  0.87145982     0.69600
O1730       O  0.89721678  0.06534995  0.84261041    -0.47300
C1731       C  0.87736294  0.47563087  0.84146229     0.74300
O1732       O  0.89558483  0.03977398  0.78839256    -0.59200
O1733       O  0.90317927  0.49117996  0.85389976    -0.49300
O1734       O  0.92721267  0.02787949  0.78864553    -0.55600
C1735       C  0.97107289  0.06765249  0.84626569     0.84500
O1736       O  0.89401546  0.03941982  0.88241751    -0.57500
O1737       O  0.86832271  0.49025578  0.82845332    -0.60800
In1738     In  0.56255355  0.10988727  0.83603285     1.36900
C1739       C  0.56372769  0.11206682  0.77222566     0.76900
O1740       O  0.60340616  0.10861625  0.83005665    -0.61500
O1741       O  0.56541330  0.07216975  0.85333819    -0.52500
C1742       C  0.59041520  0.15855704  0.87268316     0.69600
O1743       O  0.58100088  0.15753321  0.84475141    -0.47300
C1744       C  0.00396638  0.08405127  0.84638517     0.74300
O1745       O  0.58131447  0.13441785  0.78930005    -0.59200
O1746       O  0.51802836  0.07336351  0.85707482    -0.49300
O1747       O  0.54606434  0.08865586  0.78767660    -0.55600
C1748       C  0.59160773  0.08334708  0.84267231     0.84500
O1749       O  0.58456436  0.13395239  0.88278413    -0.57500
O1750       O  0.52019928  0.10886906  0.83284685    -0.60800
In1751     In  0.63056763  0.03619484  0.83461910     1.36900
C1752       C  0.63447928  0.04010569  0.77076513     0.76900
O1753       O  0.62717128  0.49345404  0.82702929    -0.61500
O1754       O  0.59150436  0.49191296  0.85118622    -0.52500
C1755       C  0.67453506  0.05676360  0.87802457     0.69600
O1756       O  0.67937796  0.06253654  0.84853583    -0.47300
C1757       C  0.60642932  0.06738365  0.84269051     0.74300
O1758       O  0.65740697  0.05002417  0.78831903    -0.59200
O1759       O  0.59309019  0.04048259  0.85064406    -0.49300
O1760       O  0.61004935  0.02794952  0.78579085    -0.55600
C1761       C  0.60164369  0.47768987  0.83983750     0.84500
O1762       O  0.64719643  0.04064059  0.88552221    -0.57500
O1763       O  0.63283283  0.07889511  0.83265905    -0.60800
In1764     In  0.54923950  0.38697906  0.83055479     1.36900
C1765       C  0.55133729  0.39003471  0.76727158     0.76900
O1766       O  0.50377075  0.34489675  0.82537467    -0.61500
O1767       O  0.50760722  0.37902773  0.85429493    -0.52500
C1768       C  0.57124162  0.36202702  0.86451394     0.69600
O1769       O  0.56405932  0.35599231  0.83547705    -0.47300
C1770       C  0.58408560  0.44524747  0.83931912     0.74300
O1771       O  0.56523950  0.38160152  0.78322405    -0.59200
O1772       O  0.55775267  0.42949981  0.85021977    -0.49300
O1773       O  0.53605257  0.39652188  0.78359054    -0.55600
C1774       C  0.99059610  0.35370875  0.84187486     0.84500
O1775       O  0.56659034  0.38042416  0.87650473    -0.57500
O1776       O  0.59334257  0.43101628  0.82592402    -0.60800
C1777       C  0.83306494  0.11153057  0.57713611     0.85800
C1778       C  0.79993168  0.09956362  0.58318583    -0.54400
C1779       C  0.78935356  0.11419381  0.56723858     0.08700
C1780       C  0.81386677  0.14027069  0.54651566     0.19700
C1781       C  0.83316357  0.10935083  0.54069207    -0.55100
C1782       C  0.82459972  0.12529884  0.52396187     0.08800
C1783       C  0.85043483  0.14437119  0.58509015    -0.54700
C1784       C  0.84042676  0.15943356  0.57014110     0.09400
H1785       H  0.78519515  0.07984263  0.59720205     0.13900
H1786       H  0.80642970  0.15281290  0.53343119    -0.00300
H1787       H  0.83799874  0.09439353  0.52960926     0.14200
H1788       H  0.86783414  0.15449582  0.60342302     0.14000
C1789       C  0.83351836  0.11120416  0.93589524     0.85800
C1790       C  0.84304439  0.14174762  0.92357439    -0.54400
C1791       C  0.82977603  0.15391591  0.93845304     0.08700
C1792       C  0.80714457  0.13364518  0.96504557     0.19700
C1793       C  0.83891810  0.11504353  0.97160412    -0.55100
C1794       C  0.82452758  0.12539423  0.98780919     0.08800
C1795       C  0.79900746  0.09324861  0.93132317    -0.54700
C1796       C  0.78476082  0.10478397  0.94633897     0.09400
H1797       H  0.85658191  0.15170406  0.90219004     0.13900
H1798       H  0.79655651  0.14318440  0.97810106    -0.00300
H1799       H  0.85352454  0.10955613  0.98279482     0.14200
H1800       H  0.78725950  0.07439752  0.91505269     0.14000
C1801       C  0.63323020  0.32032206  0.56978243     0.85800
C1802       C  0.66627853  0.33148642  0.57617837    -0.54400
C1803       C  0.67553359  0.31506307  0.56165442     0.08700
C1804       C  0.64977380  0.28763582  0.54347064     0.19700
C1805       C  0.63031884  0.31798679  0.53370723    -0.55100
C1806       C  0.63818113  0.30072551  0.51912330     0.08800
C1807       C  0.61639373  0.28849014  0.58252015    -0.54700
C1808       C  0.62477102  0.27129832  0.56933068     0.09400
H1809       H  0.68078951  0.34939379  0.59252221     0.13900
H1810       H  0.65619804  0.27362747  0.53194282    -0.00300
H1811       H  0.62383587  0.33109214  0.52111297     0.14200
H1812       H  0.60071212  0.28082539  0.60237585     0.14000
C1813       C  0.62862917  0.31105107  0.93002264     0.85800
C1814       C  0.61917872  0.28025726  0.91898318    -0.54400
C1815       C  0.63244094  0.26862615  0.93512760     0.08700
C1816       C  0.65496920  0.28967679  0.96152791     0.19700
C1817       C  0.62289680  0.30806236  0.96561726    -0.55100
C1818       C  0.63739346  0.29838093  0.98305813     0.08800
C1819       C  0.66308268  0.32892033  0.92585486    -0.54700
C1820       C  0.67732916  0.31801230  0.94215789     0.09400
H1821       H  0.60556367  0.26959877  0.89771946     0.13900
H1822       H  0.66558603  0.28062578  0.97558704    -0.00300
H1823       H  0.60804131  0.31357898  0.97565395     0.14200
H1824       H  0.67475087  0.34691826  0.90861871     0.14000
C1825       C  0.58223514  0.30561774  0.90308076    -0.02500
C1826       C  0.61254674  0.32412269  0.91407705     0.07200
C1827       C  0.62558106  0.35529682  0.91507153    -0.02600
C1828       C  0.61231565  0.36762719  0.89829288    -0.02600
C1829       C  0.58465284  0.34899886  0.88270356     0.07300
C1830       C  0.56925835  0.31801330  0.88572404    -0.02800
Br1831     Br  0.52929388  0.29256020  0.86796284    -0.01400
Br1832     Br  0.55528922  0.26491020  0.91744937    -0.01500
Br1833     Br  0.63259271  0.41035563  0.89603907    -0.01400
Br1834     Br  0.65819162  0.38138631  0.94378649    -0.01400
C1835       C  0.73124430  0.06174258  0.93668304    -0.02500
C1836       C  0.75230604  0.09289629  0.93868054     0.07200
C1837       C  0.74304914  0.11140233  0.92734616    -0.02600
C1838       C  0.71722731  0.09928050  0.90779502    -0.02600
C1839       C  0.69914093  0.06861975  0.90174117     0.07300
C1840       C  0.70492257  0.04965335  0.91808990    -0.02800
Br1841     Br  0.67768238  0.00716029  0.91353822    -0.01400
Br1842     Br  0.73748700  0.03541994  0.96088234    -0.01500
Br1843     Br  0.70598154  0.12444961  0.88920693    -0.01400
Br1844     Br  0.76269490  0.15244147  0.93956421    -0.01400
C1845       C  0.63629765  0.24088312  0.88964164    -0.02500
C1846       C  0.62909896  0.24146309  0.92210185     0.07200
C1847       C  0.61447707  0.21505279  0.93998932    -0.02600
C1848       C  0.60259589  0.18752287  0.92452298    -0.02600
C1849       C  0.60698973  0.18671607  0.89119133     0.07300
C1850       C  0.62600387  0.21368682  0.87456928    -0.02800
Br1851     Br  0.63879158  0.21380945  0.83118774    -0.01400
Br1852     Br  0.66000108  0.27733210  0.86531464    -0.03100
Br1853     Br  0.57843938  0.15140306  0.94890274    -0.01400
Br1854     Br  0.61000911  0.21670160  0.98537976    -0.01400
C1855       C  0.85010908  0.05382612  0.90746639    -0.02500
C1856       C  0.87708877  0.07187832  0.89053263     0.07200
C1857       C  0.89244000  0.10296746  0.89250241    -0.02600
C1858       C  0.87980547  0.11589385  0.90943506    -0.02600
C1859       C  0.84979112  0.09774358  0.92119813     0.07300
C1860       C  0.83720713  0.06674540  0.92385136    -0.02800
Br1861     Br  0.80567736  0.04210823  0.95408722    -0.01400
Br1862     Br  0.83003744  0.01112277  0.90734858    -0.01500
Br1863     Br  0.90701919  0.15701450  0.92238838    -0.01400
Br1864     Br  0.93198280  0.12796125  0.87381246    -0.01400
C1865       C  0.82591389  0.18023977  0.89118413    -0.02500
C1866       C  0.83318548  0.18072973  0.92390119     0.07200
C1867       C  0.84849146  0.20786982  0.94047500    -0.02600
C1868       C  0.86132602  0.23486186  0.92353219    -0.02600
C1869       C  0.85651296  0.23457204  0.89002151     0.07300
C1870       C  0.83681609  0.20696118  0.87458031    -0.02800
Br1871     Br  0.82381587  0.20510745  0.83078379    -0.01400
Br1872     Br  0.80089669  0.14279696  0.86881451    -0.01500
Br1873     Br  0.88768244  0.27159895  0.94635053    -0.01400
Br1874     Br  0.85200503  0.20785623  0.98628947    -0.01400
C1875       C  0.88622293  0.08661300  0.59722252    -0.02500
C1876       C  0.87248799  0.06883984  0.62438915     0.07200
C1877       C  0.84750982  0.06678599  0.63816386    -0.02600
C1878       C  0.83618075  0.08244607  0.62479386    -0.02600
C1879       C  0.84702503  0.09697550  0.59464604     0.07300
C1880       C  0.87420387  0.10129047  0.58285299    -0.02800
Br1881     Br  0.89842881  0.13059341  0.55018906    -0.01400
Br1882     Br  0.92308576  0.09270988  0.58119801    -0.01500
Br1883     Br  0.81231219  0.08966388  0.65298835    -0.01400
Br1884     Br  0.82848187  0.04217914  0.67564475    -0.01400
C1885       C  0.72215434  0.11155231  0.59915953    -0.02500
C1886       C  0.70349377  0.08088144  0.60558228     0.07200
C1887       C  0.70897624  0.06134042  0.59007959    -0.02600
C1888       C  0.73514779  0.07279616  0.57176965    -0.02600
C1889       C  0.75700082  0.10377423  0.57067536     0.07300
C1890       C  0.74854102  0.12302589  0.58085753    -0.02800
Br1891     Br  0.77143793  0.16443651  0.56923424    -0.01400
Br1892     Br  0.71140274  0.13762722  0.61572011    -0.01500
Br1893     Br  0.74147294  0.04594406  0.54855352    -0.01400
Br1894     Br  0.68261235  0.01899195  0.59679124    -0.01400
C1895       C  0.58133770  0.18897282  0.58996014    -0.02500
C1896       C  0.59727572  0.18931774  0.61719249     0.07200
C1897       C  0.62223459  0.21658520  0.62842405    -0.02600
C1898       C  0.63008875  0.24333395  0.61380690    -0.02600
C1899       C  0.61563043  0.24289877  0.58520337     0.07300
C1900       C  0.59019837  0.21580328  0.57442402    -0.02800
Br1901     Br  0.56442477  0.21618374  0.54238534    -0.01400
Br1902     Br  0.54603953  0.15217868  0.57516868    -0.01500
Br1903     Br  0.65831397  0.28032590  0.63549173    -0.01400
Br1904     Br  0.64689207  0.21742065  0.66286710    -0.01400
C1905       C  0.75744307  0.36524976  0.58137400    -0.02500
C1906       C  0.76086774  0.34623243  0.60113770     0.07200
C1907       C  0.73978634  0.31524963  0.59878005    -0.02600
C1908       C  0.71364450  0.30376212  0.57989994    -0.02600
C1909       C  0.70716251  0.32345052  0.56616057     0.07300
C1910       C  0.73077241  0.35373140  0.56373424    -0.02800
Br1911     Br  0.72651201  0.37933747  0.53574400    -0.01400
Br1912     Br  0.78756736  0.40750475  0.58074938    -0.01500
Br1913     Br  0.68898043  0.26171220  0.57143763    -0.01400
Br1914     Br  0.74669127  0.28854652  0.62148151    -0.01400
C1915       C  0.57579180  0.33735332  0.59743591    -0.02500
C1916       C  0.59441543  0.36504929  0.61231164     0.07200
C1917       C  0.62567505  0.38098539  0.60834477    -0.02600
C1918       C  0.63848793  0.36808890  0.59171228    -0.02600
C1919       C  0.62030477  0.33765954  0.58256985     0.07300
C1920       C  0.58851529  0.32387760  0.58202676    -0.02800
Br1921     Br  0.56163835  0.28793228  0.55774390    -0.01400
Br1922     Br  0.53263891  0.31756159  0.59888660    -0.01500
Br1923     Br  0.67796451  0.39495214  0.57405891    -0.01400
Br1924     Br  0.65056684  0.42153458  0.62345881    -0.01400
C1925       C  0.73067031  0.36026614  0.93073297    -0.02500
C1926       C  0.70945922  0.32928818  0.93426788     0.07200
C1927       C  0.71768821  0.31001436  0.92312947    -0.02600
C1928       C  0.74221237  0.32085013  0.90210736    -0.02600
C1929       C  0.76114957  0.35143186  0.89568949     0.07300
C1930       C  0.75642360  0.37129118  0.91169700    -0.02800
Br1931     Br  0.78390679  0.41364189  0.90557072    -0.01400
Br1932     Br  0.72536025  0.38801302  0.95298927    -0.01500
Br1933     Br  0.75006785  0.29372153  0.88209716    -0.01400
Br1934     Br  0.69906904  0.26998111  0.93853050    -0.01400
C1935       C  0.88710564  0.24225154  0.58764639    -0.02500
C1936       C  0.87102589  0.24345470  0.61365320     0.07200
C1937       C  0.84461506  0.21731818  0.62440700    -0.02600
C1938       C  0.83541171  0.18993917  0.61080793    -0.02600
C1939       C  0.84984885  0.18876219  0.58317491     0.07300
C1940       C  0.87665271  0.21480140  0.57263427    -0.02800
Br1941     Br  0.90177279  0.21192368  0.54190718    -0.01400
Br1942     Br  0.92477897  0.27744572  0.57452861    -0.01500
Br1943     Br  0.80700927  0.15438523  0.63440731    -0.01400
Br1944     Br  0.82059383  0.21873155  0.65794429    -0.01400
In1945     In  0.90567287  0.81736058  0.17120906     1.36900
C1946       C  0.90238568  0.81441009  0.23505306     0.76900
O1947       O  0.94899328  0.82026344  0.17449910    -0.61500
O1948       O  0.94972704  0.85613087  0.15292895    -0.52500
C1949       C  0.88382668  0.77046452  0.13330937     0.69600
O1950       O  0.88566805  0.76951784  0.16330036    -0.47300
C1951       C  0.87297324  0.83966355  0.16141931     0.74300
O1952       O  0.88731526  0.79183108  0.21744940    -0.59200
O1953       O  0.89987337  0.85274157  0.15245410    -0.49300
O1954       O  0.91920510  0.83842346  0.22011530    -0.55600
C1955       C  0.96444139  0.84564565  0.16192532     0.84500
O1956       O  0.89347965  0.79587076  0.12212663    -0.57500
O1957       O  0.86219400  0.81439386  0.17354795    -0.60800
In1958     In  0.83145902  0.88473096  0.33128307     1.36900
C1959       C  0.82884491  0.88390203  0.26711591     0.76900
O1960       O  0.83438391  0.92763612  0.32736004    -0.61500
O1961       O  0.87091421  0.92865054  0.34884524    -0.52500
C1962       C  0.78623104  0.86270559  0.37285998     0.69600
O1963       O  0.78242315  0.85460370  0.34393948    -0.47300
C1964       C  0.85513802  0.85314819  0.34048796     0.74300
O1965       O  0.80574590  0.87401891  0.28418843    -0.59200
O1966       O  0.86792225  0.87964269  0.34979460    -0.49300
O1967       O  0.85284648  0.89446623  0.28277681    -0.55600
C1968       C  0.86019284  0.94311452  0.33984129     0.84500
O1969       O  0.81313368  0.88148777  0.38063606    -0.57500
O1970       O  0.82946979  0.84219134  0.32844528    -0.60800
In1971     In  0.55602582  0.89703509  0.16926620     1.36900
C1972       C  0.55303245  0.89243762  0.23246785     0.76900
O1973       O  0.59868785  0.94149153  0.17682763    -0.61500
O1974       O  0.56404993  0.93957094  0.14984938    -0.52500
C1975       C  0.58112621  0.87723031  0.13205988     0.69600
O1976       O  0.58596971  0.88116721  0.16171083    -0.47300
C1977       C  0.99721350  0.86274975  0.16073620     0.74300
O1978       O  0.56524520  0.88271187  0.21570306    -0.59200
O1979       O  0.51283483  0.88939172  0.15145666    -0.49300
O1980       O  0.54248795  0.90457587  0.21699267    -0.55600
C1981       C  0.58966587  0.95551322  0.16250198     0.84500
O1982       O  0.56354954  0.88370476  0.12106042    -0.57500
O1983       O  0.51193269  0.85282894  0.17158931    -0.60800
In1984     In  0.83044786  0.88319055  0.16778380     1.36900
C1985       C  0.82850545  0.88321710  0.23182297     0.76900
O1986       O  0.83075153  0.84208176  0.17266955    -0.61500
O1987       O  0.86801493  0.87991416  0.15024491    -0.52500
C1988       C  0.78576834  0.85878811  0.12473476     0.69600
O1989       O  0.78166438  0.85174038  0.15399639    -0.47300
C1990       C  0.85852816  0.94168832  0.16223910     0.74300
O1991       O  0.80524627  0.87368171  0.21486345    -0.59200
O1992       O  0.86863212  0.92769939  0.15008540    -0.49300
O1993       O  0.85210160  0.89229513  0.21607943    -0.55600
C1994       C  0.85649868  0.85389720  0.16060153     0.84500
O1995       O  0.81266705  0.87805615  0.11754254    -0.57500
O1996       O  0.83304310  0.92559625  0.17509571    -0.60800
In1997     In  0.56208777  0.61386531  0.17341705     1.36900
C1998       C  0.56344493  0.61301641  0.23716072     0.76900
O1999       O  0.51828371  0.60966733  0.17870672    -0.61500
O2000       O  0.51822921  0.57613443  0.15250231    -0.52500
C2001       C  0.58542607  0.66221206  0.13679982     0.69600
O2002       O  0.58241741  0.66237600  0.16670352    -0.47300
C2003       C  0.59394688  0.59080859  0.16503084     0.74300
O2004       O  0.57879589  0.63675788  0.22131903    -0.59200
O2005       O  0.56773013  0.57879125  0.15402824    -0.49300
O2006       O  0.54746567  0.58994004  0.22049694    -0.55600
C2007       C  0.00306248  0.58514176  0.16423887     0.84500
O2008       O  0.57678751  0.63713500  0.12535400    -0.57500
O2009       O  0.60471308  0.61566666  0.17823878    -0.60800
In2010     In  0.63447911  0.54554499  0.17177117     1.36900
C2011       C  0.63541326  0.54247524  0.23561996     0.76900
O2012       O  0.63510141  0.58700568  0.17761141    -0.61500
O2013       O  0.59762227  0.54985447  0.15430873    -0.52500
C2014       C  0.67880007  0.56917814  0.12898742     0.69600
O2015       O  0.68313498  0.57680089  0.15811099    -0.47300
C2016       C  0.60668626  0.98783688  0.16304890     0.74300
O2017       O  0.65915433  0.55403163  0.21918313    -0.59200
O2018       O  0.59587784  0.00199024  0.15319080    -0.49300
O2019       O  0.61185728  0.53296386  0.21948472    -0.55600
C2020       C  0.60960997  0.57583595  0.16495252     0.84500
O2021       O  0.65186748  0.54998716  0.12171520    -0.57500
O2022       O  0.63242617  0.00343615  0.17564649    -0.60800
In2023     In  0.91102528  0.53256812  0.17399309     1.36900
C2024       C  0.91062800  0.53247192  0.23742880     0.76900
O2025       O  0.86790953  0.98786346  0.18031577    -0.61500
O2026       O  0.90173326  0.99049849  0.15129378    -0.52500
C2027       C  0.88676459  0.55598182  0.14127330     0.69600
O2028       O  0.89383333  0.56133933  0.17037779    -0.47300
C2029       C  0.97014357  0.56733303  0.16409572     0.74300
O2030       O  0.89534079  0.53891920  0.22098489    -0.59200
O2031       O  0.95436957  0.54080482  0.15446175    -0.49300
O2032       O  0.92561105  0.52534894  0.22150987    -0.55600
C2033       C  0.87618586  0.97419016  0.16395160     0.84500
O2034       O  0.89301065  0.53914458  0.12813495    -0.57500
O2035       O  0.95547563  0.57659988  0.17638972    -0.60800
In2036     In  0.89951437  0.81132356  0.33400521     1.36900
C2037       C  0.90073369  0.81301634  0.27015046     0.76900
O2038       O  0.85831411  0.81197736  0.32820298    -0.61500
O2039       O  0.89614045  0.84848760  0.35188649    -0.52500
C2040       C  0.87241696  0.76242718  0.37067771     0.69600
O2041       O  0.87955583  0.76292575  0.34183950    -0.47300
C2042       C  0.95784395  0.83695770  0.34329243     0.74300
O2043       O  0.88261053  0.78955644  0.28549042    -0.59200
O2044       O  0.94385104  0.84683628  0.35618702    -0.49300
O2045       O  0.91763805  0.83542869  0.28736532    -0.55600
C2046       C  0.86996233  0.83719900  0.34094069     0.84500
O2047       O  0.87994350  0.78746759  0.38119332    -0.57500
O2048       O  0.94159769  0.81270327  0.32863522    -0.60800
In2049     In  0.91199203  0.53444718  0.33577787     1.36900
C2050       C  0.91111065  0.53338315  0.27234026     0.76900
O2051       O  0.95743800  0.57733549  0.33210778    -0.61500
O2052       O  0.95427100  0.54175128  0.35739994    -0.52500
C2053       C  0.88978145  0.55848883  0.37146020     0.69600
O2054       O  0.89721686  0.56535009  0.34261076    -0.47300
C2055       C  0.87736302  0.97563122  0.34146205     0.74300
O2056       O  0.89558483  0.53977413  0.28839286    -0.59200
O2057       O  0.90317926  0.99118032  0.35389971    -0.49300
O2058       O  0.92721305  0.52788015  0.28864568    -0.55600
C2059       C  0.97107308  0.56765252  0.34626585     0.84500
O2060       O  0.89401587  0.53942020  0.38241795    -0.57500
O2061       O  0.86832301  0.99025616  0.32845261    -0.60800
In2062     In  0.56255371  0.60988721  0.33603293     1.36900
C2063       C  0.56372767  0.61206680  0.27222578     0.76900
O2064       O  0.60340649  0.60861641  0.33005681    -0.61500
O2065       O  0.56541341  0.57216960  0.35333776    -0.52500
C2066       C  0.59041544  0.65855685  0.37268347     0.69600
O2067       O  0.58100123  0.65753312  0.34475169    -0.47300
C2068       C  0.00396659  0.58405126  0.34638519     0.74300
O2069       O  0.58131408  0.63441799  0.28930014    -0.59200
O2070       O  0.51802854  0.57336365  0.35707510    -0.49300
O2071       O  0.54606478  0.58865567  0.28767671    -0.55600
C2072       C  0.59160795  0.58334710  0.34267216     0.84500
O2073       O  0.58456443  0.63395212  0.38278439    -0.57500
O2074       O  0.52019942  0.60886898  0.33284666    -0.60800
In2075     In  0.63056780  0.53619481  0.33461888     1.36900
C2076       C  0.63447949  0.54010561  0.27076497     0.76900
O2077       O  0.62717122  0.99345357  0.32702926    -0.61500
O2078       O  0.59150471  0.99191267  0.35118695    -0.52500
C2079       C  0.67453515  0.55676358  0.37802436     0.69600
O2080       O  0.67937808  0.56253672  0.34853566    -0.47300
C2081       C  0.60642951  0.56738366  0.34269029     0.74300
O2082       O  0.65740716  0.55002376  0.28831882    -0.59200
O2083       O  0.59309024  0.54048250  0.35064342    -0.49300
O2084       O  0.61004960  0.52794986  0.28579071    -0.55600
C2085       C  0.60164381  0.97768949  0.33983791     0.84500
O2086       O  0.64719653  0.54064036  0.38552195    -0.57500
O2087       O  0.63283314  0.57889521  0.33265913    -0.60800
In2088     In  0.54923916  0.88697871  0.33055521     1.36900
C2089       C  0.55133673  0.89003436  0.26727199     0.76900
O2090       O  0.50377035  0.84489642  0.32537543    -0.61500
O2091       O  0.50760683  0.87902801  0.35429456    -0.52500
C2092       C  0.57124099  0.86202629  0.36451437     0.69600
O2093       O  0.56405885  0.85599180  0.33547742    -0.47300
C2094       C  0.58408565  0.94524709  0.33931960     0.74300
O2095       O  0.56523907  0.88160129  0.28322441    -0.59200
O2096       O  0.55775306  0.92949947  0.35022120    -0.49300
O2097       O  0.53605196  0.89652144  0.28359101    -0.55600
C2098       C  0.99059564  0.85370890  0.34187506     0.84500
O2099       O  0.56658962  0.88042335  0.37650524    -0.57500
O2100       O  0.59334213  0.93101585  0.32592359    -0.60800
C2101       C  0.83306487  0.61153071  0.07713650     0.85800
C2102       C  0.79993154  0.59956360  0.08318598    -0.54400
C2103       C  0.78935345  0.61419379  0.06723863     0.08700
C2104       C  0.81386670  0.64027076  0.04651588     0.19700
C2105       C  0.83316370  0.60935109  0.04069244    -0.55100
C2106       C  0.82459980  0.62529902  0.02396216     0.08800
C2107       C  0.85043458  0.64437130  0.08509066    -0.54700
C2108       C  0.84042653  0.65943363  0.07014147     0.09400
H2109       H  0.78519500  0.57984256  0.09720209     0.13900
H2110       H  0.80642962  0.65281295  0.03343138    -0.00300
H2111       H  0.83799894  0.59439384  0.02960969     0.14200
H2112       H  0.86783377  0.65449595  0.10342364     0.14000
C2113       C  0.83351819  0.61120414  0.43589542     0.85800
C2114       C  0.84304415  0.64174759  0.42357455    -0.54400
C2115       C  0.82977580  0.65391590  0.43845321     0.08700
C2116       C  0.80714439  0.63364516  0.46504577     0.19700
C2117       C  0.83891794  0.61504354  0.47160427    -0.55100
C2118       C  0.82452741  0.62539422  0.48780936     0.08800
C2119       C  0.79900728  0.59324857  0.43132341    -0.54700
C2120       C  0.78476064  0.60478394  0.44633920     0.09400
H2121       H  0.85658172  0.65170406  0.40219010     0.13900
H2122       H  0.79655634  0.64318439  0.47810130    -0.00300
H2123       H  0.85352443  0.60955614  0.48279499     0.14200
H2124       H  0.78725933  0.57439748  0.41505295     0.14000
C2125       C  0.63322984  0.82032166  0.06978271     0.85800
C2126       C  0.66627820  0.83148615  0.07617864    -0.54400
C2127       C  0.67553337  0.81506293  0.06165461     0.08700
C2128       C  0.64977365  0.78763567  0.04347076     0.19700
C2129       C  0.63031850  0.81798650  0.03370749    -0.55100
C2130       C  0.63818090  0.80072534  0.01912348     0.08800
C2131       C  0.61639346  0.78848972  0.08252034    -0.54700
C2132       C  0.62477090  0.77129804  0.06933081     0.09400
H2133       H  0.68078913  0.84939357  0.09252246     0.13900
H2134       H  0.65619794  0.77362741  0.03194289    -0.00300
H2135       H  0.62383553  0.83109182  0.02111337     0.14200
H2136       H  0.60071180  0.78082485  0.10237596     0.14000
C2137       C  0.62862882  0.81105051  0.43002291     0.85800
C2138       C  0.61917858  0.78025676  0.41898352    -0.54400
C2139       C  0.63244099  0.76862583  0.43512799     0.08700
C2140       C  0.65496921  0.78967662  0.46152824     0.19700
C2141       C  0.62289641  0.80806177  0.46561755    -0.55100
C2142       C  0.63739332  0.79838059  0.48305840     0.08800
C2143       C  0.66308238  0.82892000  0.42585511    -0.54700
C2144       C  0.67732902  0.81801214  0.44215818     0.09400
H2145       H  0.60556352  0.76959816  0.39771987     0.13900
H2146       H  0.66558620  0.78062580  0.47558743    -0.00300
H2147       H  0.60804089  0.81357820  0.47565423     0.14200
H2148       H  0.67475043  0.84691790  0.40861902     0.14000
C2149       C  0.58223469  0.80561695  0.40308087    -0.02500
C2150       C  0.61254624  0.82412199  0.41407731     0.07200
C2151       C  0.62558033  0.85529607  0.41507207    -0.02600
C2152       C  0.61231487  0.86762644  0.39829355    -0.02600
C2153       C  0.58465222  0.84899810  0.38270394     0.07300
C2154       C  0.56925787  0.81801250  0.38572413    -0.02800
Br2155     Br  0.52929360  0.79255931  0.36796243    -0.01400
Br2156     Br  0.55528881  0.76490940  0.41744958    -0.01500
Br2157     Br  0.63259174  0.91035492  0.39604028    -0.01400
Br2158     Br  0.65819063  0.88138544  0.44378730    -0.01400
C2159       C  0.73124422  0.56174253  0.43668307    -0.02500
C2160       C  0.75230584  0.59289623  0.43868075     0.07200
C2161       C  0.74304892  0.61140224  0.42734634    -0.02600
C2162       C  0.71722721  0.59928046  0.40779500    -0.02600
C2163       C  0.69914097  0.56861973  0.40174100     0.07300
C2164       C  0.70492262  0.54965332  0.41808970    -0.02800
Br2165     Br  0.67768275  0.50716027  0.41353755    -0.01400
Br2166     Br  0.73748697  0.53541992  0.46088237    -0.01500
Br2167     Br  0.70598136  0.62444956  0.38920698    -0.01400
Br2168     Br  0.76269460  0.65244129  0.43956450    -0.01400
C2169       C  0.63629795  0.74088295  0.38964212    -0.02500
C2170       C  0.62909920  0.74146286  0.42210232     0.07200
C2171       C  0.61447734  0.71505254  0.43998976    -0.02600
C2172       C  0.60259613  0.68752264  0.42452336    -0.02600
C2173       C  0.60699000  0.68671588  0.39119170     0.07300
C2174       C  0.62600418  0.71368667  0.37456970    -0.02800
Br2175     Br  0.63879175  0.71380942  0.33118806    -0.01400
Br2176     Br  0.66000141  0.77733202  0.36531519    -0.03100
Br2177     Br  0.57843944  0.65140280  0.44890302    -0.01400
Br2178     Br  0.61000972  0.71670135  0.48538028    -0.01400
C2179       C  0.85010910  0.55382614  0.40746661    -0.02500
C2180       C  0.87708883  0.57187843  0.39053295     0.07200
C2181       C  0.89243992  0.60296756  0.39250265    -0.02600
C2182       C  0.87980531  0.61589387  0.40943526    -0.02600
C2183       C  0.84979096  0.59774354  0.42119831     0.07300
C2184       C  0.83720701  0.56674534  0.42385148    -0.02800
Br2185     Br  0.80567723  0.54210803  0.45408725    -0.01400
Br2186     Br  0.83003764  0.51112278  0.40734885    -0.01500
Br2187     Br  0.90701898  0.65701446  0.42238886    -0.01400
Br2188     Br  0.93198274  0.62796145  0.37381274    -0.01400
C2189       C  0.82591358  0.68023974  0.39118434    -0.02500
C2190       C  0.83318514  0.68072969  0.42390140     0.07200
C2191       C  0.84849096  0.70786978  0.44047523    -0.02600
C2192       C  0.86132556  0.73486182  0.42353240    -0.02600
C2193       C  0.85651260  0.73457201  0.39002170     0.07300
C2194       C  0.83681582  0.70696113  0.37458047    -0.02800
Br2195     Br  0.82381577  0.70510726  0.33078384    -0.01400
Br2196     Br  0.80089631  0.64279691  0.36881478    -0.01500
Br2197     Br  0.88768171  0.77159894  0.44635081    -0.01400
Br2198     Br  0.85200428  0.70785620  0.48628973    -0.01400
C2199       C  0.88622305  0.58661342  0.09722301    -0.02500
C2200       C  0.87248807  0.56884012  0.12438953     0.07200
C2201       C  0.84750990  0.56678621  0.13816430    -0.02600
C2202       C  0.83618074  0.58244622  0.12479430    -0.02600
C2203       C  0.84702501  0.59697570  0.09464649     0.07300
C2204       C  0.87420394  0.60129086  0.08285352    -0.02800
Br2205     Br  0.89842898  0.63059405  0.05018982    -0.01400
Br2206     Br  0.92308595  0.59271050  0.08119855    -0.01500
Br2207     Br  0.81231186  0.58966365  0.15298863    -0.01400
Br2208     Br  0.82848216  0.54217936  0.17564527    -0.01400
C2209       C  0.72215435  0.61155229  0.09915955    -0.02500
C2210       C  0.70349377  0.58088139  0.10558220     0.07200
C2211       C  0.70897623  0.56134037  0.09007945    -0.02600
C2212       C  0.73514773  0.57279612  0.07176946    -0.02600
C2213       C  0.75700072  0.60377419  0.07067519     0.07300
C2214       C  0.74854092  0.62302585  0.08085739    -0.02800
Br2215     Br  0.77143772  0.66443646  0.06923404    -0.01400
Br2216     Br  0.71140305  0.63762734  0.11572059    -0.01500
Br2217     Br  0.74147295  0.54594405  0.04855332    -0.01400
Br2218     Br  0.68261252  0.51899192  0.09679127    -0.01400
C2219       C  0.58133756  0.68897259  0.08996032    -0.02500
C2220       C  0.59727574  0.68931749  0.11719251     0.07200
C2221       C  0.62223475  0.71658491  0.12842392    -0.02600
C2222       C  0.63008884  0.74333365  0.11380682    -0.02600
C2223       C  0.61563042  0.74289850  0.08520339     0.07300
C2224       C  0.59019826  0.71580305  0.07442415    -0.02800
Br2225     Br  0.56442458  0.71618367  0.04238566    -0.01400
Br2226     Br  0.54603921  0.65217846  0.07516917    -0.01500
Br2227     Br  0.65831396  0.78032551  0.13549179    -0.01400
Br2228     Br  0.64689267  0.71742037  0.16286644    -0.01400
C2229       C  0.75744289  0.86524981  0.08137404    -0.02500
C2230       C  0.76086769  0.84623249  0.10113764     0.07200
C2231       C  0.73978636  0.81524968  0.09877986    -0.02600
C2232       C  0.71364450  0.80376215  0.07989976    -0.02600
C2233       C  0.70716235  0.82345052  0.06616065     0.07300
C2234       C  0.73077214  0.85373146  0.06373445    -0.02800
Br2235     Br  0.72651156  0.87933763  0.03574451    -0.01400
Br2236     Br  0.78756721  0.90750477  0.08074920    -0.01500
Br2237     Br  0.68898045  0.76171220  0.07143742    -0.01400
Br2238     Br  0.74669129  0.78854653  0.12148129    -0.01400
C2239       C  0.57579131  0.83735262  0.09743648    -0.02500
C2240       C  0.59441494  0.86504864  0.11231218     0.07200
C2241       C  0.62567456  0.88098481  0.10834515    -0.02600
C2242       C  0.63848744  0.86808836  0.09171264    -0.02600
C2243       C  0.62030433  0.83765901  0.08257025     0.07300
C2244       C  0.58851485  0.82387697  0.08202722    -0.02800
Br2245     Br  0.56163808  0.78793184  0.05774399    -0.01400
Br2246     Br  0.53263842  0.81756092  0.09888711    -0.01500
Br2247     Br  0.67796374  0.89495169  0.07405871    -0.01400
Br2248     Br  0.65056637  0.92153410  0.12345887    -0.01400
C2249       C  0.73067010  0.86026622  0.43073322    -0.02500
C2250       C  0.70945916  0.82928822  0.43426820     0.07200
C2251       C  0.71768833  0.81001451  0.42312988    -0.02600
C2252       C  0.74221250  0.82085043  0.40210775    -0.02600
C2253       C  0.76114948  0.85143215  0.39568974     0.07300
C2254       C  0.75642332  0.87129138  0.41169710    -0.02800
Br2255     Br  0.78390597  0.91364207  0.40557007    -0.01400
Br2256     Br  0.72535988  0.88801300  0.45298950    -0.01500
Br2257     Br  0.75006820  0.79372208  0.38209744    -0.01400
Br2258     Br  0.69906913  0.76998116  0.43853074    -0.01400
C2259       C  0.88710539  0.74225155  0.08764689    -0.02500
C2260       C  0.87102552  0.74345468  0.11365361     0.07200
C2261       C  0.84461462  0.71731817  0.12440730    -0.02600
C2262       C  0.83541129  0.68993919  0.11080816    -0.02600
C2263       C  0.84984853  0.68876225  0.08317521     0.07300
C2264       C  0.87665241  0.71480146  0.07263463    -0.02800
Br2265     Br  0.90177236  0.71192386  0.04190724    -0.01400
Br2266     Br  0.92477922  0.77744551  0.07452983    -0.01500
Br2267     Br  0.80700871  0.65438520  0.13440736    -0.01400
Br2268     Br  0.82059329  0.71873150  0.15794452    -0.01400
In2269     In  0.90567298  0.81736055  0.67120898     1.36900
C2270       C  0.90238584  0.81441010  0.73505298     0.76900
O2271       O  0.94899352  0.82026377  0.67449950    -0.61500
O2272       O  0.94972712  0.85613096  0.65292892    -0.52500
C2273       C  0.88382710  0.77046461  0.63330903     0.69600
O2274       O  0.88566884  0.76951795  0.66329997    -0.47300
C2275       C  0.87297322  0.83966340  0.66141934     0.74300
O2276       O  0.88731547  0.79183105  0.71744934    -0.59200
O2277       O  0.89987326  0.85274132  0.65245385    -0.49300
O2278       O  0.91920513  0.83842348  0.72011519    -0.55600
C2279       C  0.96444156  0.84564592  0.66192561     0.84500
O2280       O  0.89347967  0.79587080  0.62212641    -0.57500
O2281       O  0.86219410  0.81439384  0.67354827    -0.60800
In2282     In  0.83145917  0.88473069  0.83128307     1.36900
C2283       C  0.82884489  0.88390168  0.76711594     0.76900
O2284       O  0.83438400  0.92763578  0.82735982    -0.61500
O2285       O  0.87091423  0.92865033  0.84884538    -0.52500
C2286       C  0.78623106  0.86270531  0.87285984     0.69600
O2287       O  0.78242325  0.85460353  0.84393930    -0.47300
C2288       C  0.85513833  0.85314809  0.84048792     0.74300
O2289       O  0.80574583  0.87401813  0.78418852    -0.59200
O2290       O  0.86792263  0.87964266  0.84979431    -0.49300
O2291       O  0.85284654  0.89446631  0.78277678    -0.55600
C2292       C  0.86019283  0.94311424  0.83984124     0.84500
O2293       O  0.81313370  0.88148738  0.88063602    -0.57500
O2294       O  0.82946999  0.84219109  0.82844550    -0.60800
In2295     In  0.55602606  0.89703532  0.66926607     1.36900
C2296       C  0.55303281  0.89243805  0.73246766     0.76900
O2297       O  0.59868810  0.94149173  0.67682736    -0.61500
O2298       O  0.56405022  0.93957104  0.64984891    -0.52500
C2299       C  0.58112653  0.87723063  0.63205978     0.69600
O2300       O  0.58597002  0.88116751  0.66171073    -0.47300
C2301       C  0.99721369  0.86275009  0.66073654     0.74300
O2302       O  0.56524508  0.88271182  0.71570285    -0.59200
O2303       O  0.51283500  0.88939199  0.65145685    -0.49300
O2304       O  0.54248878  0.90457678  0.71699253    -0.55600
C2305       C  0.58966615  0.95551338  0.66250159     0.84500
O2306       O  0.56354982  0.88370503  0.62106033    -0.57500
O2307       O  0.51193287  0.85282922  0.67158948    -0.60800
In2308     In  0.83044778  0.88319029  0.66778385     1.36900
C2309       C  0.82850539  0.88321673  0.73182299     0.76900
O2310       O  0.83075148  0.84208154  0.67266953    -0.61500
O2311       O  0.86801491  0.87991403  0.65024501    -0.52500
C2312       C  0.78576830  0.85878797  0.62473489     0.69600
O2313       O  0.78166427  0.85174046  0.65399658    -0.47300
C2314       C  0.85852807  0.94168804  0.66223925     0.74300
O2315       O  0.80524619  0.87368116  0.71486349    -0.59200
O2316       O  0.86863195  0.92769911  0.65008538    -0.49300
O2317       O  0.85210158  0.89229496  0.71607944    -0.55600
C2318       C  0.85649867  0.85389704  0.66060156     0.84500
O2319       O  0.81266704  0.87805577  0.61754257    -0.57500
O2320       O  0.83304305  0.92559596  0.67509596    -0.60800
In2321     In  0.56208763  0.61386540  0.67341718     1.36900
C2322       C  0.56344479  0.61301634  0.73716082     0.76900
O2323       O  0.51828357  0.60966730  0.67870738    -0.61500
O2324       O  0.51822911  0.57613485  0.65250204    -0.52500
C2325       C  0.58542587  0.66221215  0.63679999     0.69600
O2326       O  0.58241725  0.66237608  0.66670371    -0.47300
C2327       C  0.59394666  0.59080864  0.66503087     0.74300
O2328       O  0.57879602  0.63675781  0.72131916    -0.59200
O2329       O  0.56772978  0.57879118  0.65402860    -0.49300
O2330       O  0.54746529  0.58994004  0.72049700    -0.55600
C2331       C  0.00306230  0.58514183  0.66423895     0.84500
O2332       O  0.57678737  0.63713510  0.62535418    -0.57500
O2333       O  0.60471301  0.61566685  0.67823855    -0.60800
In2334     In  0.63447912  0.54554524  0.67177122     1.36900
C2335       C  0.63541325  0.54247556  0.73562003     0.76900
O2336       O  0.63510146  0.58700601  0.67761087    -0.61500
O2337       O  0.59762194  0.54985439  0.65430915    -0.52500
C2338       C  0.67880013  0.56917841  0.62898756     0.69600
O2339       O  0.68313508  0.57680103  0.65811118    -0.47300
C2340       C  0.60668641  0.98783705  0.66304860     0.74300
O2341       O  0.65915437  0.55403222  0.71918325    -0.59200
O2342       O  0.59587799  0.00199036  0.65319043    -0.49300
O2343       O  0.61185726  0.53296391  0.71948474    -0.55600
C2344       C  0.60960980  0.57583604  0.66495248     0.84500
O2345       O  0.65186753  0.54998752  0.62171531    -0.57500
O2346       O  0.63242622  0.00343634  0.67564649    -0.60800
In2347     In  0.91102516  0.53256796  0.67399314     1.36900
C2348       C  0.91062785  0.53247174  0.73742888     0.76900
O2349       O  0.86790929  0.98786329  0.68031547    -0.61500
O2350       O  0.90173339  0.99049820  0.65129429    -0.52500
C2351       C  0.88676435  0.55598147  0.64127325     0.69600
O2352       O  0.89383276  0.56133877  0.67037783    -0.47300
C2353       C  0.97014341  0.56733304  0.66409578     0.74300
O2354       O  0.89534071  0.53891910  0.72098497    -0.59200
O2355       O  0.95436947  0.54080488  0.65446167    -0.49300
O2356       O  0.92561091  0.52534877  0.72150993    -0.55600
C2357       C  0.87618581  0.97418991  0.66395173     0.84500
O2358       O  0.89301074  0.53914449  0.62813490    -0.57500
O2359       O  0.95547543  0.57659979  0.67638994    -0.60800
In2360     In  0.89951466  0.81132354  0.83400514     1.36900
C2361       C  0.90073394  0.81301637  0.77015039     0.76900
O2362       O  0.85831435  0.81197726  0.82820303    -0.61500
O2363       O  0.89614084  0.84848765  0.85188623    -0.52500
C2364       C  0.87241703  0.76242707  0.87067756     0.69600
O2365       O  0.87955573  0.76292562  0.84183928    -0.47300
C2366       C  0.95784424  0.83695749  0.84329244     0.74300
O2367       O  0.88261104  0.78955639  0.78549037    -0.59200
O2368       O  0.94385133  0.84683597  0.85618725    -0.49300
O2369       O  0.91763810  0.83542878  0.78736525    -0.55600
C2370       C  0.86996265  0.83719896  0.84094061     0.84500
O2371       O  0.87994381  0.78746753  0.88119325    -0.57500
O2372       O  0.94159799  0.81270322  0.82863496    -0.60800
In2373     In  0.91199184  0.53444685  0.83577796     1.36900
C2374       C  0.91111042  0.53338285  0.77234037     0.76900
O2375       O  0.95743774  0.57733510  0.83210743    -0.61500
O2376       O  0.95427079  0.54175132  0.85740053    -0.52500
C2377       C  0.88978125  0.55848854  0.87146018     0.69600
O2378       O  0.89721668  0.56534978  0.84261074    -0.47300
C2379       C  0.87736289  0.97563092  0.84146207     0.74300
O2380       O  0.89558475  0.53977399  0.78839298    -0.59200
O2381       O  0.90317918  0.99118004  0.85389959    -0.49300
O2382       O  0.92721262  0.52787957  0.78864577    -0.55600
C2383       C  0.97107283  0.56765237  0.84626595     0.84500
O2384       O  0.89401554  0.53941983  0.88241792    -0.57500
O2385       O  0.86832272  0.99025581  0.82845287    -0.60800
In2386     In  0.56255346  0.60988722  0.83603311     1.36900
C2387       C  0.56372749  0.61206669  0.77222591     0.76900
O2388       O  0.60340627  0.60861652  0.83005716    -0.61500
O2389       O  0.56541316  0.57216956  0.85333787    -0.52500
C2390       C  0.59041511  0.65855691  0.87268348     0.69600
O2391       O  0.58100090  0.65753314  0.84475170    -0.47300
C2392       C  0.00396631  0.58405114  0.84638530     0.74300
O2393       O  0.58131409  0.63441781  0.78930027    -0.59200
O2394       O  0.51802841  0.57336378  0.85707554    -0.49300
O2395       O  0.54606439  0.58865566  0.78767687    -0.55600
C2396       C  0.59160773  0.58334714  0.84267237     0.84500
O2397       O  0.58456410  0.63395221  0.88278449    -0.57500
O2398       O  0.52019913  0.60886885  0.83284663    -0.60800
In2399     In  0.63056767  0.53619503  0.83461893     1.36900
C2400       C  0.63447943  0.54010593  0.77076503     0.76900
O2401       O  0.62717131  0.99345382  0.82702975    -0.61500
O2402       O  0.59150430  0.99191283  0.85118641    -0.52500
C2403       C  0.67453504  0.55676367  0.87802441     0.69600
O2404       O  0.67937794  0.56253656  0.84853567    -0.47300
C2405       C  0.60642937  0.56738379  0.84269045     0.74300
O2406       O  0.65740712  0.55002446  0.78831895    -0.59200
O2407       O  0.59309011  0.54048262  0.85064359    -0.49300
O2408       O  0.61004948  0.52794980  0.78579070    -0.55600
C2409       C  0.60164367  0.97768970  0.83983786     0.84500
O2410       O  0.64719642  0.54064074  0.88552208    -0.57500
O2411       O  0.63283299  0.57889539  0.83265930    -0.60800
In2412     In  0.54923931  0.88697894  0.83055500     1.36900
C2413       C  0.55133709  0.89003478  0.76727179     0.76900
O2414       O  0.50377055  0.84489660  0.82537493    -0.61500
O2415       O  0.50760703  0.87902773  0.85429496    -0.52500
C2416       C  0.57124133  0.86202680  0.86451419     0.69600
O2417       O  0.56405904  0.85599211  0.83547729    -0.47300
C2418       C  0.58408551  0.94524731  0.83931950     0.74300
O2419       O  0.56523948  0.88160176  0.78322419    -0.59200
O2420       O  0.55775262  0.92949969  0.85022027    -0.49300
O2421       O  0.53605223  0.89652173  0.78359080    -0.55600
C2422       C  0.99059593  0.85370871  0.84187509     0.84500
O2423       O  0.56659006  0.88042396  0.87650496    -0.57500
O2424       O  0.59334237  0.93101609  0.82592424    -0.60800
C2425       C  0.83306484  0.61153056  0.57713636     0.85800
C2426       C  0.79993159  0.59956360  0.58318603    -0.54400
C2427       C  0.78935350  0.61419382  0.56723879     0.08700
C2428       C  0.81386668  0.64027069  0.54651589     0.19700
C2429       C  0.83316351  0.60935085  0.54069231    -0.55100
C2430       C  0.82459964  0.62529885  0.52396210     0.08800
C2431       C  0.85043472  0.64437121  0.58509045    -0.54700
C2432       C  0.84042661  0.65943354  0.57014134     0.09400
H2433       H  0.78519500  0.57984253  0.59720226     0.13900
H2434       H  0.80642957  0.65281287  0.53343145    -0.00300
H2435       H  0.83799859  0.59439353  0.52960953     0.14200
H2436       H  0.86783391  0.65449581  0.60342326     0.14000
C2437       C  0.83351833  0.61120417  0.93589549     0.85800
C2438       C  0.84304433  0.64174764  0.92357469    -0.54400
C2439       C  0.82977593  0.65391590  0.93845328     0.08700
C2440       C  0.80714445  0.63364514  0.96504579     0.19700
C2441       C  0.83891806  0.61504358  0.97160436    -0.55100
C2442       C  0.82452752  0.62539425  0.98780942     0.08800
C2443       C  0.79900740  0.59324861  0.93132339    -0.54700
C2444       C  0.78476072  0.60478394  0.94633915     0.09400
H2445       H  0.85658199  0.65170418  0.90219024     0.13900
H2446       H  0.79655637  0.64318433  0.97810128    -0.00300
H2447       H  0.85352458  0.60955619  0.98279510     0.14200
H2448       H  0.78725951  0.57439757  0.91505285     0.14000
C2449       C  0.63323000  0.82032182  0.56978262     0.85800
C2450       C  0.66627833  0.83148619  0.57617864    -0.54400
C2451       C  0.67553340  0.81506284  0.56165467     0.08700
C2452       C  0.64977364  0.78763564  0.54347083     0.19700
C2453       C  0.63031873  0.81798667  0.53370739    -0.55100
C2454       C  0.63818101  0.80072534  0.51912348     0.08800
C2455       C  0.61639347  0.78848988  0.58252023    -0.54700
C2456       C  0.62477080  0.77129807  0.56933078     0.09400
H2457       H  0.68078921  0.84939350  0.59252240     0.13900
H2458       H  0.65619788  0.77362726  0.53194299    -0.00300
H2459       H  0.62383593  0.83109203  0.52111319     0.14200
H2460       H  0.60071174  0.78082504  0.60237585     0.14000
C2461       C  0.62862894  0.81105085  0.93002286     0.85800
C2462       C  0.61917847  0.78025701  0.91898352    -0.54400
C2463       C  0.63244078  0.76862596  0.93512789     0.08700
C2464       C  0.65496910  0.78967669  0.96152811     0.19700
C2465       C  0.62289664  0.80806223  0.96561751    -0.55100
C2466       C  0.63739337  0.79838082  0.98305834     0.08800
C2467       C  0.66308245  0.82892014  0.92585497    -0.54700
C2468       C  0.67732898  0.81801216  0.94215798     0.09400
H2469       H  0.60556333  0.76959842  0.89771984     0.13900
H2470       H  0.66558600  0.78062574  0.97558721    -0.00300
H2471       H  0.60804127  0.81357883  0.97565415     0.14200
H2472       H  0.67475057  0.84691803  0.90861888     0.14000
C2473       C  0.58223487  0.80561750  0.90308101    -0.02500
C2474       C  0.61254648  0.82412247  0.91407728     0.07200
C2475       C  0.62558078  0.85529661  0.91507180    -0.02600
C2476       C  0.61231528  0.86762698  0.89829331    -0.02600
C2477       C  0.58465253  0.84899863  0.88270386     0.07300
C2478       C  0.56925808  0.81801306  0.88572427    -0.02800
Br2479     Br  0.52929372  0.79255986  0.86796284    -0.01400
Br2480     Br  0.55528891  0.76490990  0.91744960    -0.01500
Br2481     Br  0.63259225  0.91035546  0.89603977    -0.01400
Br2482     Br  0.65819155  0.88138617  0.94378651    -0.01400
C2483       C  0.73124420  0.56174259  0.93668295    -0.02500
C2484       C  0.75230593  0.59289628  0.93868057     0.07200
C2485       C  0.74304904  0.61140232  0.92734618    -0.02600
C2486       C  0.71722729  0.59928053  0.90779492    -0.02600
C2487       C  0.69914093  0.56861979  0.90174098     0.07300
C2488       C  0.70492255  0.54965339  0.91808966    -0.02800
Br2489     Br  0.67768244  0.50716034  0.91353775    -0.01400
Br2490     Br  0.73748686  0.53541994  0.96088216    -0.01500
Br2491     Br  0.70598158  0.62444969  0.88920690    -0.01400
Br2492     Br  0.76269467  0.65244135  0.93956446    -0.01400
C2493       C  0.63629748  0.74088296  0.88964190    -0.02500
C2494       C  0.62909885  0.74146293  0.92210214     0.07200
C2495       C  0.61447702  0.71505263  0.93998960    -0.02600
C2496       C  0.60259586  0.68752272  0.92452329    -0.02600
C2497       C  0.60698967  0.68671593  0.89119163     0.07300
C2498       C  0.62600377  0.71368667  0.87456955    -0.02800
Br2499     Br  0.63879151  0.71380931  0.83118801    -0.01400
Br2500     Br  0.66000082  0.77733194  0.86531488    -0.03100
Br2501     Br  0.57843969  0.65140292  0.94890319    -0.01400
Br2502     Br  0.61000923  0.71670145  0.98538005    -0.01400
C2503       C  0.85010900  0.55382603  0.90746663    -0.02500
C2504       C  0.87708873  0.57187824  0.89053296     0.07200
C2505       C  0.89243997  0.60296738  0.89250280    -0.02600
C2506       C  0.87980542  0.61589378  0.90943538    -0.02600
C2507       C  0.84979105  0.59774353  0.92119838     0.07300
C2508       C  0.83720702  0.56674533  0.92385154    -0.02800
Br2509     Br  0.80567711  0.54210809  0.95408723    -0.01400
Br2510     Br  0.83003739  0.51112266  0.90734882    -0.01500
Br2511     Br  0.90701914  0.65701438  0.92238885    -0.01400
Br2512     Br  0.93198279  0.62796113  0.87381293    -0.01400
C2513       C  0.82591369  0.68023964  0.89118432    -0.02500
C2514       C  0.83318526  0.68072966  0.92390140     0.07200
C2515       C  0.84849107  0.70786976  0.94047517    -0.02600
C2516       C  0.86132562  0.73486176  0.92353231    -0.02600
C2517       C  0.85651264  0.73457191  0.89002159     0.07300
C2518       C  0.83681584  0.70696101  0.87458042    -0.02800
Br2519     Br  0.82381570  0.70510711  0.83078382    -0.01400
Br2520     Br  0.80089662  0.64279679  0.86881474    -0.01500
Br2521     Br  0.88768184  0.77159884  0.94635074    -0.01400
Br2522     Br  0.85200434  0.70785628  0.98628970    -0.01400
C2523       C  0.88622285  0.58661302  0.59722284    -0.02500
C2524       C  0.87248783  0.56883973  0.62438937     0.07200
C2525       C  0.84750957  0.56678575  0.63816399    -0.02600
C2526       C  0.83618059  0.58244593  0.62479405    -0.02600
C2527       C  0.84702495  0.59697550  0.59464630     0.07300
C2528       C  0.87420379  0.60129048  0.58285328    -0.02800
Br2529     Br  0.89842873  0.63059331  0.55018927    -0.01400
Br2530     Br  0.92308580  0.59271015  0.58119850    -0.01500
Br2531     Br  0.81231198  0.58966354  0.65298859    -0.01400
Br2532     Br  0.82848142  0.54217859  0.67564469    -0.01400
C2533       C  0.72215444  0.61155254  0.59915969    -0.02500
C2534       C  0.70349380  0.58088166  0.60558232     0.07200
C2535       C  0.70897623  0.56134062  0.59007957    -0.02600
C2536       C  0.73514775  0.57279630  0.57176963    -0.02600
C2537       C  0.75700083  0.60377436  0.57067547     0.07300
C2538       C  0.74854109  0.62302608  0.58085768    -0.02800
Br2539     Br  0.77143812  0.66443679  0.56923468    -0.01400
Br2540     Br  0.71140293  0.63762750  0.61572036    -0.01500
Br2541     Br  0.74147297  0.54594418  0.54855356    -0.01400
Br2542     Br  0.68261251  0.51899221  0.59679147    -0.01400
C2543       C  0.58133744  0.68897257  0.58996029    -0.02500
C2544       C  0.59727546  0.68931755  0.61719266     0.07200
C2545       C  0.62223438  0.71658501  0.62842411    -0.02600
C2546       C  0.63008855  0.74333372  0.61380694    -0.02600
C2547       C  0.61563022  0.74289853  0.58520342     0.07300
C2548       C  0.59019817  0.71580302  0.57442408    -0.02800
Br2549     Br  0.56442459  0.71618339  0.54238534    -0.01400
Br2550     Br  0.54603937  0.65217835  0.57516871    -0.01500
Br2551     Br  0.65831364  0.78032559  0.63549195    -0.01400
Br2552     Br  0.64689205  0.71742049  0.66286691    -0.01400
C2553       C  0.75744298  0.86524960  0.58137400    -0.02500
C2554       C  0.76086767  0.84623231  0.60113779     0.07200
C2555       C  0.73978626  0.81524948  0.59878022    -0.02600
C2556       C  0.71364436  0.80376192  0.57990016    -0.02600
C2557       C  0.70716235  0.82345032  0.56616080     0.07300
C2558       C  0.73077225  0.85373121  0.56373435    -0.02800
Br2559     Br  0.72651176  0.87933725  0.53574407    -0.01400
Br2560     Br  0.78756730  0.90750459  0.58074915    -0.01500
Br2561     Br  0.68898016  0.76171193  0.57143791    -0.01400
Br2562     Br  0.74669122  0.78854640  0.62148174    -0.01400
C2563       C  0.57579162  0.83735306  0.59743621    -0.02500
C2564       C  0.59441527  0.86504898  0.61231207     0.07200
C2565       C  0.62567489  0.88098509  0.60834517    -0.02600
C2566       C  0.63848777  0.86808864  0.59171259    -0.02600
C2567       C  0.62030459  0.83765930  0.58257009     0.07300
C2568       C  0.58851511  0.82387735  0.58202696    -0.02800
Br2569     Br  0.56163828  0.78793219  0.55774373    -0.01400
Br2570     Br  0.53263873  0.81756145  0.59888681    -0.01500
Br2571     Br  0.67796425  0.89495196  0.57405894    -0.01400
Br2572     Br  0.65056668  0.92153423  0.62345929    -0.01400
C2573       C  0.73067013  0.86026610  0.93073298    -0.02500
C2574       C  0.70945906  0.82928811  0.93426787     0.07200
C2575       C  0.71768808  0.81001432  0.92312948    -0.02600
C2576       C  0.74221230  0.82085017  0.90210743    -0.02600
C2577       C  0.76114943  0.85143190  0.89568950     0.07300
C2578       C  0.75642342  0.87129120  0.91169698    -0.02800
Br2579     Br  0.78390660  0.91364191  0.90557052    -0.01400
Br2580     Br  0.72536005  0.88801289  0.95298947    -0.01500
Br2581     Br  0.75006802  0.79372173  0.88209738    -0.01400
Br2582     Br  0.69906885  0.76998101  0.93853047    -0.01400
C2583       C  0.88710556  0.74225153  0.58764647    -0.02500
C2584       C  0.87102583  0.74345476  0.61365326     0.07200
C2585       C  0.84461500  0.71731827  0.62440711    -0.02600
C2586       C  0.83541161  0.68993923  0.61080812    -0.02600
C2587       C  0.84984869  0.68876219  0.58317507     0.07300
C2588       C  0.87665251  0.71480137  0.57263431    -0.02800
Br2589     Br  0.90177237  0.71192355  0.54190697    -0.01400
Br2590     Br  0.92477908  0.77744556  0.57452886    -0.01500
Br2591     Br  0.80700917  0.65438532  0.63440755    -0.01400
Br2592     Br  0.82059379  0.71873181  0.65794432    -0.01400
loop_ 
_geom_bond_atom_site_label_1 
_geom_bond_atom_site_label_2 
_geom_bond_distance 
_geom_bond_site_symmetry_2 
_ccdc_geom_bond_type 
In1           O3   2.244       .  S
In1           O4   2.247       .  S
In1          O12   2.263       .  S
In1           O6   2.210       .  S
In1           O8   2.256       .  S
In1           O9   2.248       .  S
In1          O10   2.249       .  S
In1          O13   2.250       .  S
C2            O8   1.259       .  A
C2           O10   1.260       .  A
C2           C93   1.466       .  S
O3           C11   1.259       .  A
O4           C11   1.260       .  A
C5           O12   1.260       .  A
C5            O6   1.257       .  A
C5          C316   1.472       .  S
C7            O9   1.259       .  A
C7           O13   1.259       .  A
C7           C50   1.463       .  S
C11          C33   1.461       .  S
In14         O16   2.250       .  S
In14         O17   2.249       .  S
In14         O25   2.247       .  S
In14         O19   2.253       .  S
In14         O21   2.278       .  S
In14         O22   2.257       .  S
In14         O23   2.241       .  S
In14         O26   2.253       .  S
C15          O21   1.262       .  A
C15          O23   1.259       .  A
C15          C41   1.472       .  S
O16          C24   1.262       .  A
O17          C24   1.261       .  A
C18          O25   1.258       .  A
C18          O19   1.260       .  A
C18         C309   1.476       .  S
C20          O22   1.259       .  A
C20          O26   1.259       .  A
C20         C102   1.467       .  S
C24         C111   1.466       .  S
In27         O29   2.233       .  S
In27         O30   2.248       .  S
In27         O38   2.250       .  S
In27         O32   2.230       .  S
In27         O34   2.240       .  S
In27         O35   2.239       .  S
In27         O36   2.236       .  S
In27         O39   2.241       .  S
C28          O34   1.260       .  A
C28          O36   1.258       .  A
C28         C145   1.455       .  S
O29          C37   1.256       .  A
O30          C37   1.259       .  A
C31          O38   1.261       .  A
C31          O32   1.256       .  A
C31         C296   1.468       .  S
C33        O1331   1.261       .  A
C33        O1335   1.261       .  A
O35        C1329   1.261   1_455  A
C37          C72   1.456       .  S
O39        C1329   1.261   1_455  A
In40         O42   2.248       .  S
In40         O43   2.245       .  S
In40         O51   2.251       .  S
In40         O45   2.258       .  S
In40         O47   2.277       .  S
In40         O48   2.248       .  S
In40         O49   2.235       .  S
In40         O52   2.247       .  S
C41          O47   1.265       .  A
C41          O49   1.259       .  A
O42          C50   1.260       .  A
O43          C50   1.260       .  A
C44          O51   1.258       .  A
C44          O45   1.261       .  A
C44         C286   1.481       .  S
C46          O48   1.261       .  A
C46          O52   1.261       .  A
C46          C89   1.465       .  S
In53         O55   2.243       .  S
In53         O56   2.258       .  S
In53         O64   2.264       .  S
In53         O58   2.233       .  S
In53         O60   2.255       .  S
In53         O61   2.239       .  S
In53         O62   2.241       .  S
In53         O65   2.243       .  S
C54          O60   1.261       .  A
C54          O62   1.259       .  A
C54         C119   1.463       .  S
O55        C1359   1.259       .  A
O56        C1359   1.260       .  A
C57          O64   1.261       .  A
C57          O58   1.258       .  A
C57         C276   1.480       .  S
C59          O61   1.260       .  A
C59          O65   1.259       .  A
C59          C76   1.459       .  S
C63        O1351   1.259       .  A
C63        O1352   1.260       .  A
C63          C85   1.466       .  S
In66         O68   2.244       .  S
In66         O69   2.237       .  S
In66         O77   2.246       .  S
In66         O71   2.254       .  S
In66         O73   2.275       .  S
In66         O75   2.233       .  S
In66        O722   2.236       .  S
In66        O726   2.231       .  S
C67          O73   1.264       .  A
C67          O75   1.258       .  A
C67         C132   1.469       .  S
O68          C76   1.260       .  A
O69          C76   1.259       .  A
C70          O77   1.258       .  A
C70          O71   1.262       .  A
C70         C266   1.476       .  S
C72          O74   1.261       .  A
C72          O78   1.261       .  A
O74        In714   2.236       .  S
O78        In714   2.231       .  S
In79         O90   2.256       .  S
In79         O84   2.218       .  S
In79         O86   2.237       .  S
In79         O87   2.264       .  S
In79         O88   2.241       .  S
In79         O91   2.245       .  S
In79        O729   2.245   1_545  S
In79        O730   2.255   1_545  S
C80          O86   1.258       .  A
C80          O88   1.260       .  A
C80         C106   1.456       .  S
O81        In727   2.245       .  S
O81          C89   1.259       .  A
O82        In727   2.255       .  S
O82          C89   1.261       .  A
C83          O90   1.261       .  A
C83          O84   1.255       .  A
C83         C256   1.470       .  S
C85          O87   1.260       .  A
C85          O91   1.257       .  A
In92         O94   2.243       .  S
In92         O95   2.251       .  S
In92        O103   2.267       .  S
In92         O97   2.238       .  S
In92         O99   2.260       .  S
In92        O100   2.258       .  S
In92        O101   2.241       .  S
In92        O104   2.230       .  S
C93          O99   1.263       .  A
C93         O101   1.258       .  A
O94         C102   1.261       .  A
O95         C102   1.262       .  A
C96         O103   1.260       .  A
C96          O97   1.259       .  A
C96         C249   1.491       .  S
C98         O100   1.262       .  A
C98         O104   1.258       .  A
C98         C154   1.461       .  S
In105       O107   2.247       .  S
In105       O108   2.259       .  S
In105       O116   2.256       .  S
In105       O110   2.238       .  S
In105       O112   2.244       .  S
In105       O114   2.234       .  S
In105       O761   2.250   1_545  S
In105       O765   2.248   1_545  S
C106        O112   1.261       .  A
C106        O114   1.258       .  A
O107        C115   1.259       .  A
O108        C115   1.261       .  A
C109        O116   1.262       .  A
C109        O110   1.257       .  A
C109        C236   1.477       .  S
C111        O113   1.261       .  A
C111        O117   1.260       .  A
O113       In753   2.250       .  S
C115        C124   1.468       .  S
O117       In753   2.248       .  S
In118       O120   2.246       .  S
In118       O121   2.253       .  S
In118       O129   2.273       .  S
In118       O123   2.222       .  S
In118       O125   2.256       .  S
In118       O126   2.264       .  S
In118       O127   2.243       .  S
In118       O130   2.246       .  S
C119        O125   1.260       .  A
C119        O127   1.259       .  A
O120        C128   1.260       .  A
O121        C128   1.262       .  A
C122        O129   1.261       .  A
C122        O123   1.257       .  A
C122        C229   1.484       .  S
C124       O1422   1.261       .  A
C124       O1426   1.258       .  A
O126       C1420   1.261       .  A
C128        C137   1.467       .  S
O130       C1420   1.258       .  A
In131       O142   2.260       .  S
In131       O136   2.248       .  S
In131       O138   2.274       .  S
In131       O139   2.253       .  S
In131       O140   2.235       .  S
In131       O143   2.252       .  S
In131       O781   2.245   1_545  S
In131       O782   2.241   1_545  S
C132        O138   1.263       .  A
C132        O140   1.259       .  A
O133       In779   2.245       .  S
O133        C141   1.260       .  A
O134       In779   2.241       .  S
O134        C141   1.260       .  A
C135        O142   1.259       .  A
C135        O136   1.260       .  A
C135        C219   1.476       .  S
C137        O139   1.259       .  A
C137        O143   1.260       .  A
C141        C150   1.461       .  S
In144       O146   2.234       .  S
In144       O147   2.257       .  S
In144       O155   2.241       .  S
In144       O149   2.234       .  S
In144       O151   2.238       .  S
In144       O152   2.242       .  S
In144       O153   2.236       .  S
In144       O156   2.243       .  S
C145        O151   1.259       .  A
C145        O153   1.259       .  A
O146       C1450   1.258   1_455  A
O147       C1450   1.260   1_455  A
C148        O155   1.260       .  A
C148        O149   1.256       .  A
C148        C209   1.468       .  S
C150        O152   1.260       .  A
C150        O156   1.259       .  A
C154       O1442   1.258       .  A
C154       O1443   1.260       .  A
C157        C158   1.536       .  S
C157        C163   1.516       .  S
C157        C161   1.524       .  S
C157        C259   1.541       .  S
C158        H165   1.081       .  S
C158        C159   1.376       .  D
C159        C160   1.551       .  S
C159        C269   1.503       .  S
C160        C164   1.556       .  S
C160        C162   1.550       .  S
C160        H166   1.105       .  S
C161        H167   1.084       .  S
C161        C162   1.374       .  D
C162        C498   1.507   1_554  S
C163        H168   1.087       .  S
C163        C164   1.353       .  D
C164        C319   1.478       .  S
C169        C170   1.525       .  S
C169        C175   1.549       .  S
C169        C173   1.508       .  S
C169        C239   1.545       .  S
C170        H177   1.086       .  S
C170        C171   1.363       .  D
C171        C172   1.558       .  S
C171        C246   1.490       .  S
C172        C176   1.549       .  S
C172        C174   1.559       .  S
C172        H178   1.104       .  S
C173        H179   1.086       .  S
C173        C174   1.363       .  D
C174        C486   1.507       .  S
C175        H180   1.087       .  S
C175        C176   1.381       .  D
C176        C216   1.515       .  S
C181        C182   1.543       .  S
C181        C187   1.529       .  S
C181        C185   1.510       .  S
C181        C299   1.543       .  S
C182        H189   1.081       .  S
C182        C183   1.380       .  D
C183        C184   1.549       .  S
C183        C289   1.503       .  S
C184        C188   1.558       .  S
C184        C186   1.552       .  S
C184        H190   1.105       .  S
C185        H191   1.085       .  S
C185        C186   1.367       .  D
C186        C522   1.508   1_554  S
C187        H192   1.086       .  S
C187        C188   1.359       .  D
C188        C279   1.486       .  S
C193        C194   1.521       .  S
C193        C199   1.545       .  S
C193        C197   1.507       .  S
C193        C206   1.539       .  S
C194        H201   1.086       .  S
C194        C195   1.362       .  D
C195        C196   1.559       .  S
C195        C226   1.485       .  S
C196        C200   1.549       .  S
C196        C198   1.556       .  S
C196        H202   1.104       .  S
C197        H203   1.081       .  S
C197        C198   1.365       .  D
C198        C510   1.508       .  S
C199        H204   1.086       .  S
C199        C200   1.378       .  D
C200        C306   1.510       .  S
C205        C206   1.427       .  A
C205        C210   1.407       .  A
C205       Br212   1.940       .  S
C206        C207   1.425       .  A
C207        C208   1.404       .  A
C207       Br214   1.930       .  S
C208        C209   1.403       .  A
C208       Br213   1.936       .  S
C209        C210   1.405       .  A
C210       Br211   1.934       .  S
C215        C216   1.417       .  A
C215        C220   1.409       .  A
C215       Br222   1.923       .  S
C216        C217   1.426       .  A
C217        C218   1.412       .  A
C217       Br224   1.925       .  S
C218        C219   1.403       .  A
C218       Br223   1.935       .  S
C219        C220   1.405       .  A
C220       Br221   1.929       .  S
C225        C226   1.414       .  A
C225        C230   1.402       .  A
C225       Br232   1.937       .  S
C226        C227   1.404       .  A
C227        C228   1.410       .  A
C227       Br234   1.917       .  S
C228        C229   1.415       .  A
C228       Br233   1.929       .  S
C229        C230   1.413       .  A
C230       Br231   1.935       .  S
C235        C236   1.405       .  A
C235        C240   1.408       .  A
C235       Br242   1.934       .  S
C236        C237   1.406       .  A
C237        C238   1.409       .  A
C237       Br244   1.935       .  S
C238        C239   1.427       .  A
C238       Br243   1.939       .  S
C239        C240   1.424       .  A
C240       Br241   1.929       .  S
C245        C246   1.414       .  A
C245        C250   1.406       .  A
C245       Br252   1.936       .  S
C246        C247   1.403       .  A
C247        C248   1.411       .  A
C247       Br254   1.919       .  S
C248        C249   1.419       .  A
C248       Br253   1.930       .  S
C249        C250   1.416       .  A
C250       Br251   1.935       .  S
C255        C256   1.402       .  A
C255        C260   1.407       .  A
C255       Br262   1.936       .  S
C256        C257   1.406       .  A
C257        C258   1.406       .  A
C257       Br264   1.936       .  S
C258        C259   1.425       .  A
C258       Br263   1.936       .  S
C259        C260   1.431       .  A
C260       Br261   1.942       .  S
C265        C266   1.408       .  A
C265        C270   1.413       .  A
C265       Br272   1.931       .  S
C266        C267   1.407       .  A
C267        C268   1.404       .  A
C267       Br274   1.931       .  S
C268        C269   1.414       .  A
C268       Br273   1.932       .  S
C269        C270   1.417       .  A
C270       Br271   1.926       .  S
C275        C276   1.413       .  A
C275        C280   1.411       .  A
C275       Br282   1.930       .  S
C276        C277   1.409       .  A
C277        C278   1.404       .  A
C277       Br284   1.933       .  S
C278        C279   1.414       .  A
C278       Br283   1.934       .  S
C279        C280   1.408       .  A
C280       Br281   1.928       .  S
C285        C286   1.409       .  A
C285        C290   1.406       .  A
C285       Br292   1.931       .  S
C286        C287   1.411       .  A
C287        C288   1.412       .  A
C287       Br294   1.930       .  S
C288        C289   1.415       .  A
C288       Br293   1.925       .  S
C289        C290   1.411       .  A
C290       Br291   1.922       .  S
C295        C296   1.401       .  A
C295        C300   1.405       .  A
C295       Br302   1.935       .  S
C296        C297   1.404       .  A
C297        C298   1.409       .  A
C297       Br304   1.933       .  S
C298        C299   1.422       .  A
C298       Br303   1.927       .  S
C299        C300   1.430       .  A
C300       Br301   1.940       .  S
C305        C306   1.416       .  A
C305        C310   1.407       .  A
C305       Br312   1.922       .  S
C306        C307   1.422       .  A
C307        C308   1.410       .  A
C307       Br314   1.925       .  S
C308        C309   1.405       .  A
C308       Br313   1.933       .  S
C309        C310   1.407       .  A
C310       Br311   1.933       .  S
C315        C316   1.412       .  A
C315        C320   1.411       .  A
C315       Br322   1.930       .  S
C316        C317   1.407       .  A
C317        C318   1.397       .  A
C317       Br324   1.935       .  S
C318        C319   1.412       .  A
C318       Br323   1.932       .  S
C319        C320   1.411       .  A
C320       Br321   1.931       .  S
In325       O327   2.244       .  S
In325       O328   2.247       .  S
In325       O336   2.263       .  S
In325       O330   2.210       .  S
In325       O332   2.256       .  S
In325       O333   2.248       .  S
In325       O334   2.249       .  S
In325       O337   2.250       .  S
C326        O332   1.259       .  A
C326        O334   1.260       .  A
C326        C417   1.466       .  S
O327        C335   1.259       .  A
O328        C335   1.260       .  A
C329        O336   1.260       .  A
C329        O330   1.257       .  A
C329        C640   1.472       .  S
C331        O333   1.259       .  A
C331        O337   1.259       .  A
C331        C374   1.463       .  S
C335        C357   1.461       .  S
In338       O340   2.250       .  S
In338       O341   2.249       .  S
In338       O349   2.247       .  S
In338       O343   2.253       .  S
In338       O345   2.278       .  S
In338       O346   2.257       .  S
In338       O347   2.241       .  S
In338       O350   2.253       .  S
C339        O345   1.262       .  A
C339        O347   1.259       .  A
C339        C365   1.472       .  S
O340        C348   1.262       .  A
O341        C348   1.261       .  A
C342        O349   1.258       .  A
C342        O343   1.260       .  A
C342        C633   1.476       .  S
C344        O346   1.259       .  A
C344        O350   1.259       .  A
C344        C426   1.467       .  S
C348        C435   1.466       .  S
In351       O353   2.233       .  S
In351       O354   2.248       .  S
In351       O362   2.250       .  S
In351       O356   2.230       .  S
In351       O358   2.240       .  S
In351       O359   2.239       .  S
In351       O360   2.236       .  S
In351       O363   2.241       .  S
C352        O358   1.260       .  A
C352        O360   1.258       .  A
C352        C469   1.455       .  S
O353        C361   1.256       .  A
O354        C361   1.259       .  A
C355        O362   1.261       .  A
C355        O356   1.256       .  A
C355        C620   1.468       .  S
C357       O1655   1.261       .  A
C357       O1659   1.261       .  A
O359       C1653   1.261   1_455  A
C361        C396   1.456       .  S
O363       C1653   1.261   1_455  A
In364       O366   2.248       .  S
In364       O367   2.245       .  S
In364       O375   2.251       .  S
In364       O369   2.258       .  S
In364       O371   2.277       .  S
In364       O372   2.248       .  S
In364       O373   2.235       .  S
In364       O376   2.247       .  S
C365        O371   1.265       .  A
C365        O373   1.259       .  A
O366        C374   1.260       .  A
O367        C374   1.260       .  A
C368        O375   1.258       .  A
C368        O369   1.261       .  A
C368        C610   1.481       .  S
C370        O372   1.261       .  A
C370        O376   1.261       .  A
C370        C413   1.465       .  S
In377       O379   2.243       .  S
In377       O380   2.258       .  S
In377       O388   2.264       .  S
In377       O382   2.233       .  S
In377       O384   2.255       .  S
In377       O385   2.239       .  S
In377       O386   2.241       .  S
In377       O389   2.243       .  S
C378        O384   1.261       .  A
C378        O386   1.259       .  A
C378        C443   1.463       .  S
O379       C1683   1.259       .  A
O380       C1683   1.260       .  A
C381        O388   1.261       .  A
C381        O382   1.258       .  A
C381        C600   1.480       .  S
C383        O385   1.260       .  A
C383        O389   1.259       .  A
C383        C400   1.459       .  S
C387       O1675   1.259       .  A
C387       O1676   1.260       .  A
C387        C409   1.466       .  S
In390       O392   2.244       .  S
In390       O393   2.237       .  S
In390       O401   2.246       .  S
In390       O395   2.254       .  S
In390       O397   2.275       .  S
In390      O1046   2.236       .  S
In390       O399   2.233       .  S
In390      O1050   2.231       .  S
C391        O397   1.264       .  A
C391        O399   1.258       .  A
C391        C456   1.469       .  S
O392        C400   1.260       .  A
O393        C400   1.259       .  A
C394        O401   1.258       .  A
C394        O395   1.262       .  A
C394        C590   1.476       .  S
C396        O398   1.261       .  A
C396        O402   1.261       .  A
O398      In1038   2.236       .  S
O402      In1038   2.231       .  S
In403      O1053   2.245   1_545  S
In403      O1054   2.255   1_545  S
In403       O414   2.256       .  S
In403       O408   2.218       .  S
In403       O410   2.237       .  S
In403       O411   2.264       .  S
In403       O412   2.241       .  S
In403       O415   2.245       .  S
C404        O410   1.258       .  A
C404        O412   1.260       .  A
C404        C430   1.456       .  S
O405      In1051   2.245       .  S
O405        C413   1.259       .  A
O406      In1051   2.255       .  S
O406        C413   1.261       .  A
C407        O414   1.261       .  A
C407        O408   1.255       .  A
C407        C580   1.470       .  S
C409        O411   1.260       .  A
C409        O415   1.257       .  A
In416       O418   2.243       .  S
In416       O419   2.251       .  S
In416       O427   2.267       .  S
In416       O421   2.238       .  S
In416       O423   2.260       .  S
In416       O424   2.258       .  S
In416       O425   2.241       .  S
In416       O428   2.230       .  S
C417        O423   1.263       .  A
C417        O425   1.258       .  A
O418        C426   1.261       .  A
O419        C426   1.262       .  A
C420        O427   1.260       .  A
C420        O421   1.259       .  A
C420        C573   1.491       .  S
C422        O424   1.262       .  A
C422        O428   1.258       .  A
C422        C478   1.461       .  S
In429       O431   2.247       .  S
In429       O432   2.259       .  S
In429       O440   2.256       .  S
In429       O434   2.238       .  S
In429       O436   2.244       .  S
In429      O1085   2.250   1_545  S
In429       O438   2.234       .  S
In429      O1089   2.248   1_545  S
C430        O436   1.261       .  A
C430        O438   1.258       .  A
O431        C439   1.259       .  A
O432        C439   1.261       .  A
C433        O440   1.262       .  A
C433        O434   1.257       .  A
C433        C560   1.477       .  S
C435        O437   1.261       .  A
C435        O441   1.260       .  A
O437      In1077   2.250       .  S
C439        C448   1.468       .  S
O441      In1077   2.248       .  S
In442       O444   2.246       .  S
In442       O445   2.253       .  S
In442       O453   2.273       .  S
In442       O447   2.222       .  S
In442       O449   2.256       .  S
In442       O450   2.264       .  S
In442       O451   2.243       .  S
In442       O454   2.246       .  S
C443        O449   1.260       .  A
C443        O451   1.259       .  A
O444        C452   1.260       .  A
O445        C452   1.262       .  A
C446        O453   1.261       .  A
C446        O447   1.257       .  A
C446        C553   1.484       .  S
C448       O1746   1.261       .  A
C448       O1750   1.258       .  A
O450       C1744   1.261       .  A
C452        C461   1.467       .  S
O454       C1744   1.258       .  A
In455      O1105   2.245   1_545  S
In455      O1106   2.241   1_545  S
In455       O466   2.260       .  S
In455       O460   2.248       .  S
In455       O462   2.274       .  S
In455       O463   2.253       .  S
In455       O464   2.235       .  S
In455       O467   2.252       .  S
C456        O462   1.263       .  A
C456        O464   1.259       .  A
O457      In1103   2.245       .  S
O457        C465   1.260       .  A
O458      In1103   2.241       .  S
O458        C465   1.260       .  A
C459        O466   1.259       .  A
C459        O460   1.260       .  A
C459        C543   1.476       .  S
C461        O463   1.259       .  A
C461        O467   1.260       .  A
C465        C474   1.461       .  S
In468       O470   2.234       .  S
In468       O471   2.257       .  S
In468       O479   2.241       .  S
In468       O473   2.234       .  S
In468       O475   2.238       .  S
In468       O476   2.242       .  S
In468       O477   2.236       .  S
In468       O480   2.243       .  S
C469        O475   1.259       .  A
C469        O477   1.259       .  A
O470       C1774   1.258   1_455  A
O471       C1774   1.260   1_455  A
C472        O479   1.260       .  A
C472        O473   1.256       .  A
C472        C533   1.468       .  S
C474        O476   1.260       .  A
C474        O480   1.259       .  A
C478       O1766   1.258       .  A
C478       O1767   1.260       .  A
C481        C482   1.536       .  S
C481        C487   1.516       .  S
C481        C485   1.524       .  S
C481        C583   1.541       .  S
C482        H489   1.081       .  S
C482        C483   1.376       .  D
C483        C484   1.551       .  S
C483        C593   1.503       .  S
C484        C488   1.556       .  S
C484        C486   1.550       .  S
C484        H490   1.105       .  S
C485        H491   1.084       .  S
C485        C486   1.374       .  D
C487        H492   1.087       .  S
C487        C488   1.353       .  D
C488        C643   1.478       .  S
C493        C494   1.525       .  S
C493        C499   1.549       .  S
C493        C497   1.508       .  S
C493        C563   1.545       .  S
C494        H501   1.086       .  S
C494        C495   1.363       .  D
C495        C496   1.558       .  S
C495        C570   1.490       .  S
C496        C500   1.549       .  S
C496        C498   1.559       .  S
C496        H502   1.104       .  S
C497        H503   1.086       .  S
C497        C498   1.363       .  D
C499        H504   1.087       .  S
C499        C500   1.381       .  D
C500        C540   1.515       .  S
C505        C506   1.543       .  S
C505        C511   1.529       .  S
C505        C509   1.510       .  S
C505        C623   1.543       .  S
C506        H513   1.081       .  S
C506        C507   1.380       .  D
C507        C508   1.549       .  S
C507        C613   1.503       .  S
C508        C512   1.558       .  S
C508        C510   1.552       .  S
C508        H514   1.105       .  S
C509        H515   1.085       .  S
C509        C510   1.367       .  D
C511        H516   1.086       .  S
C511        C512   1.359       .  D
C512        C603   1.486       .  S
C517        C518   1.521       .  S
C517        C523   1.545       .  S
C517        C521   1.507       .  S
C517        C530   1.539       .  S
C518        H525   1.086       .  S
C518        C519   1.362       .  D
C519        C520   1.559       .  S
C519        C550   1.485       .  S
C520        C524   1.549       .  S
C520        C522   1.556       .  S
C520        H526   1.104       .  S
C521        H527   1.081       .  S
C521        C522   1.365       .  D
C523        H528   1.086       .  S
C523        C524   1.378       .  D
C524        C630   1.510       .  S
C529        C530   1.427       .  A
C529        C534   1.407       .  A
C529       Br536   1.940       .  S
C530        C531   1.425       .  A
C531        C532   1.404       .  A
C531       Br538   1.930       .  S
C532        C533   1.403       .  A
C532       Br537   1.936       .  S
C533        C534   1.405       .  A
C534       Br535   1.934       .  S
C539        C540   1.417       .  A
C539        C544   1.409       .  A
C539       Br546   1.923       .  S
C540        C541   1.426       .  A
C541        C542   1.412       .  A
C541       Br548   1.925       .  S
C542        C543   1.403       .  A
C542       Br547   1.935       .  S
C543        C544   1.405       .  A
C544       Br545   1.929       .  S
C549        C550   1.414       .  A
C549        C554   1.402       .  A
C549       Br556   1.937       .  S
C550        C551   1.404       .  A
C551        C552   1.410       .  A
C551       Br558   1.917       .  S
C552        C553   1.415       .  A
C552       Br557   1.929       .  S
C553        C554   1.413       .  A
C554       Br555   1.935       .  S
C559        C560   1.405       .  A
C559        C564   1.408       .  A
C559       Br566   1.934       .  S
C560        C561   1.406       .  A
C561        C562   1.409       .  A
C561       Br568   1.935       .  S
C562        C563   1.427       .  A
C562       Br567   1.939       .  S
C563        C564   1.424       .  A
C564       Br565   1.929       .  S
C569        C570   1.414       .  A
C569        C574   1.406       .  A
C569       Br576   1.936       .  S
C570        C571   1.403       .  A
C571        C572   1.411       .  A
C571       Br578   1.919       .  S
C572        C573   1.419       .  A
C572       Br577   1.930       .  S
C573        C574   1.416       .  A
C574       Br575   1.935       .  S
C579        C580   1.402       .  A
C579        C584   1.407       .  A
C579       Br586   1.936       .  S
C580        C581   1.406       .  A
C581        C582   1.406       .  A
C581       Br588   1.936       .  S
C582        C583   1.425       .  A
C582       Br587   1.936       .  S
C583        C584   1.431       .  A
C584       Br585   1.942       .  S
C589        C590   1.408       .  A
C589        C594   1.413       .  A
C589       Br596   1.931       .  S
C590        C591   1.407       .  A
C591        C592   1.404       .  A
C591       Br598   1.931       .  S
C592        C593   1.414       .  A
C592       Br597   1.932       .  S
C593        C594   1.417       .  A
C594       Br595   1.926       .  S
C599        C600   1.413       .  A
C599        C604   1.411       .  A
C599       Br606   1.930       .  S
C600        C601   1.409       .  A
C601        C602   1.404       .  A
C601       Br608   1.933       .  S
C602        C603   1.414       .  A
C602       Br607   1.934       .  S
C603        C604   1.408       .  A
C604       Br605   1.928       .  S
C609        C610   1.409       .  A
C609        C614   1.406       .  A
C609       Br616   1.931       .  S
C610        C611   1.411       .  A
C611        C612   1.412       .  A
C611       Br618   1.930       .  S
C612        C613   1.415       .  A
C612       Br617   1.925       .  S
C613        C614   1.411       .  A
C614       Br615   1.922       .  S
C619        C620   1.401       .  A
C619        C624   1.405       .  A
C619       Br626   1.935       .  S
C620        C621   1.404       .  A
C621        C622   1.409       .  A
C621       Br628   1.933       .  S
C622        C623   1.422       .  A
C622       Br627   1.927       .  S
C623        C624   1.430       .  A
C624       Br625   1.940       .  S
C629        C630   1.416       .  A
C629        C634   1.407       .  A
C629       Br636   1.922       .  S
C630        C631   1.422       .  A
C631        C632   1.410       .  A
C631       Br638   1.925       .  S
C632        C633   1.405       .  A
C632       Br637   1.933       .  S
C633        C634   1.407       .  A
C634       Br635   1.933       .  S
C639        C640   1.412       .  A
C639        C644   1.411       .  A
C639       Br646   1.930       .  S
C640        C641   1.407       .  A
C641        C642   1.397       .  A
C641       Br648   1.935       .  S
C642        C643   1.412       .  A
C642       Br647   1.932       .  S
C643        C644   1.411       .  A
C644       Br645   1.931       .  S
In649       O651   2.244       .  S
In649       O652   2.247       .  S
In649       O660   2.263       .  S
In649       O654   2.210       .  S
In649       O656   2.256       .  S
In649       O657   2.248       .  S
In649       O658   2.249       .  S
In649       O661   2.250       .  S
C650        O656   1.259       .  A
C650        O658   1.260       .  A
C650        C741   1.466       .  S
O651        C659   1.259       .  A
O652        C659   1.260       .  A
C653        O660   1.260       .  A
C653        O654   1.257       .  A
C653        C964   1.472       .  S
C655        O657   1.259       .  A
C655        O661   1.259       .  A
C655        C698   1.463       .  S
C659        C681   1.461       .  S
In662       O664   2.250       .  S
In662       O665   2.249       .  S
In662       O673   2.247       .  S
In662       O667   2.253       .  S
In662       O669   2.278       .  S
In662       O670   2.257       .  S
In662       O671   2.241       .  S
In662       O674   2.253       .  S
C663        O669   1.262       .  A
C663        O671   1.259       .  A
C663        C689   1.472       .  S
O664        C672   1.262       .  A
O665        C672   1.261       .  A
C666        O673   1.258       .  A
C666        O667   1.260       .  A
C666        C957   1.476       .  S
C668        O670   1.259       .  A
C668        O674   1.259       .  A
C668        C750   1.467       .  S
C672        C759   1.466       .  S
In675       O677   2.233       .  S
In675       O678   2.248       .  S
In675       O686   2.250       .  S
In675       O680   2.230       .  S
In675       O682   2.240       .  S
In675       O683   2.239       .  S
In675       O684   2.236       .  S
In675       O687   2.241       .  S
C676        O682   1.260       .  A
C676        O684   1.258       .  A
C676        C793   1.455       .  S
O677        C685   1.256       .  A
O678        C685   1.259       .  A
C679        O686   1.261       .  A
C679        O680   1.256       .  A
C679        C944   1.468       .  S
C681       O1979   1.261       .  A
C681       O1983   1.261       .  A
O683       C1977   1.261   1_455  A
C685        C720   1.456       .  S
O687       C1977   1.261   1_455  A
In688       O690   2.248       .  S
In688       O691   2.245       .  S
In688       O699   2.251       .  S
In688       O693   2.258       .  S
In688       O695   2.277       .  S
In688       O696   2.248       .  S
In688       O697   2.235       .  S
In688       O700   2.247       .  S
C689        O695   1.265       .  A
C689        O697   1.259       .  A
O690        C698   1.260       .  A
O691        C698   1.260       .  A
C692        O699   1.258       .  A
C692        O693   1.261       .  A
C692        C934   1.481       .  S
C694        O696   1.261       .  A
C694        O700   1.261       .  A
C694        C737   1.465       .  S
In701       O703   2.243       .  S
In701       O704   2.258       .  S
In701       O712   2.264       .  S
In701       O706   2.233       .  S
In701       O708   2.255       .  S
In701       O709   2.239       .  S
In701       O710   2.241       .  S
In701       O713   2.243       .  S
C702        O708   1.261       .  A
C702        O710   1.259       .  A
C702        C767   1.463       .  S
O703       C2007   1.259       .  A
O704       C2007   1.260       .  A
C705        O712   1.261       .  A
C705        O706   1.258       .  A
C705        C924   1.480       .  S
C707        O709   1.260       .  A
C707        O713   1.259       .  A
C707        C724   1.459       .  S
C711       O1999   1.259       .  A
C711       O2000   1.260       .  A
C711        C733   1.466       .  S
In714       O716   2.244       .  S
In714       O717   2.237       .  S
In714       O725   2.246       .  S
In714       O719   2.254       .  S
In714       O721   2.275       .  S
In714       O723   2.233       .  S
C715        O721   1.264       .  A
C715        O723   1.258       .  A
C715        C780   1.469       .  S
O716        C724   1.260       .  A
O717        C724   1.259       .  A
C718        O725   1.258       .  A
C718        O719   1.262       .  A
C718        C914   1.476       .  S
C720        O722   1.261   1_565  A
C720        O726   1.261   1_565  A
In727       O738   2.256       .  S
In727       O732   2.218       .  S
In727       O734   2.237       .  S
In727       O735   2.264       .  S
In727       O736   2.241       .  S
In727       O739   2.245       .  S
C728        O734   1.258       .  A
C728        O736   1.260       .  A
C728        C754   1.456       .  S
O729        C737   1.259       .  A
O730        C737   1.261       .  A
C731        O738   1.261       .  A
C731        O732   1.255       .  A
C731        C904   1.470       .  S
C733        O735   1.260       .  A
C733        O739   1.257       .  A
In740       O742   2.243       .  S
In740       O743   2.251       .  S
In740       O751   2.267       .  S
In740       O745   2.238       .  S
In740       O747   2.260       .  S
In740       O748   2.258       .  S
In740       O749   2.241       .  S
In740       O752   2.230       .  S
C741        O747   1.263       .  A
C741        O749   1.258       .  A
O742        C750   1.261       .  A
O743        C750   1.262       .  A
C744        O751   1.260       .  A
C744        O745   1.259       .  A
C744        C897   1.491       .  S
C746        O748   1.262       .  A
C746        O752   1.258       .  A
C746        C802   1.461       .  S
In753       O755   2.247       .  S
In753       O756   2.259       .  S
In753       O764   2.256       .  S
In753       O758   2.238       .  S
In753       O760   2.244       .  S
In753       O762   2.234       .  S
C754        O760   1.261       .  A
C754        O762   1.258       .  A
O755        C763   1.259       .  A
O756        C763   1.261       .  A
C757        O764   1.262       .  A
C757        O758   1.257       .  A
C757        C884   1.477       .  S
C759        O761   1.261       .  A
C759        O765   1.260       .  A
C763        C772   1.468       .  S
In766       O768   2.246       .  S
In766       O769   2.253       .  S
In766       O777   2.273       .  S
In766       O771   2.222       .  S
In766       O773   2.256       .  S
In766       O774   2.264       .  S
In766       O775   2.243       .  S
In766       O778   2.246       .  S
C767        O773   1.260       .  A
C767        O775   1.259       .  A
O768        C776   1.260       .  A
O769        C776   1.262       .  A
C770        O777   1.261       .  A
C770        O771   1.257       .  A
C770        C877   1.484       .  S
C772       O2070   1.261       .  A
C772       O2074   1.258       .  A
O774       C2068   1.261       .  A
C776        C785   1.467       .  S
O778       C2068   1.258       .  A
In779       O790   2.260       .  S
In779       O784   2.248       .  S
In779       O786   2.274       .  S
In779       O787   2.253       .  S
In779       O788   2.235       .  S
In779       O791   2.252       .  S
C780        O786   1.263       .  A
C780        O788   1.259       .  A
O781        C789   1.260       .  A
O782        C789   1.260       .  A
C783        O790   1.259       .  A
C783        O784   1.260       .  A
C783        C867   1.476       .  S
C785        O787   1.259       .  A
C785        O791   1.260       .  A
C789        C798   1.461       .  S
In792       O794   2.234       .  S
In792       O795   2.257       .  S
In792       O803   2.241       .  S
In792       O797   2.234       .  S
In792       O799   2.238       .  S
In792       O800   2.242       .  S
In792       O801   2.236       .  S
In792       O804   2.243       .  S
C793        O799   1.259       .  A
C793        O801   1.259       .  A
O794       C2098   1.258   1_455  A
O795       C2098   1.260   1_455  A
C796        O803   1.260       .  A
C796        O797   1.256       .  A
C796        C857   1.468       .  S
C798        O800   1.260       .  A
C798        O804   1.259       .  A
C802       O2090   1.258       .  A
C802       O2091   1.260       .  A
C805        C806   1.536       .  S
C805        C811   1.516       .  S
C805        C809   1.524       .  S
C805        C907   1.541       .  S
C806        H813   1.081       .  S
C806        C807   1.376       .  D
C807        C808   1.551       .  S
C807        C917   1.503       .  S
C808        C812   1.556       .  S
C808        C810   1.550       .  S
C808        H814   1.105       .  S
C809        H815   1.084       .  S
C809        C810   1.374       .  D
C810       C1146   1.507   1_554  S
C811        H816   1.087       .  S
C811        C812   1.353       .  D
C812        C967   1.478       .  S
C817        C818   1.525       .  S
C817        C823   1.549       .  S
C817        C821   1.508       .  S
C817        C887   1.545       .  S
C818        H825   1.086       .  S
C818        C819   1.363       .  D
C819        C820   1.558       .  S
C819        C894   1.490       .  S
C820        C824   1.549       .  S
C820        C822   1.559       .  S
C820        H826   1.104       .  S
C821        H827   1.086       .  S
C821        C822   1.363       .  D
C822       C1134   1.507       .  S
C823        H828   1.087       .  S
C823        C824   1.381       .  D
C824        C864   1.515       .  S
C829        C830   1.543       .  S
C829        C835   1.529       .  S
C829        C833   1.510       .  S
C829        C947   1.543       .  S
C830        H837   1.081       .  S
C830        C831   1.380       .  D
C831        C832   1.549       .  S
C831        C937   1.503       .  S
C832        C836   1.558       .  S
C832        C834   1.552       .  S
C832        H838   1.105       .  S
C833        H839   1.085       .  S
C833        C834   1.367       .  D
C834       C1170   1.508   1_554  S
C835        H840   1.086       .  S
C835        C836   1.359       .  D
C836        C927   1.486       .  S
C841        C842   1.521       .  S
C841        C847   1.545       .  S
C841        C845   1.507       .  S
C841        C854   1.539       .  S
C842        H849   1.086       .  S
C842        C843   1.362       .  D
C843        C844   1.559       .  S
C843        C874   1.485       .  S
C844        C848   1.549       .  S
C844        C846   1.556       .  S
C844        H850   1.104       .  S
C845        H851   1.081       .  S
C845        C846   1.365       .  D
C846       C1158   1.508       .  S
C847        H852   1.086       .  S
C847        C848   1.378       .  D
C848        C954   1.510       .  S
C853        C854   1.427       .  A
C853        C858   1.407       .  A
C853       Br860   1.940       .  S
C854        C855   1.425       .  A
C855        C856   1.404       .  A
C855       Br862   1.930       .  S
C856        C857   1.403       .  A
C856       Br861   1.936       .  S
C857        C858   1.405       .  A
C858       Br859   1.934       .  S
C863        C864   1.417       .  A
C863        C868   1.409       .  A
C863       Br870   1.923       .  S
C864        C865   1.426       .  A
C865        C866   1.412       .  A
C865       Br872   1.925       .  S
C866        C867   1.403       .  A
C866       Br871   1.935       .  S
C867        C868   1.405       .  A
C868       Br869   1.929       .  S
C873        C874   1.414       .  A
C873        C878   1.402       .  A
C873       Br880   1.937       .  S
C874        C875   1.404       .  A
C875        C876   1.410       .  A
C875       Br882   1.917       .  S
C876        C877   1.415       .  A
C876       Br881   1.929       .  S
C877        C878   1.413       .  A
C878       Br879   1.935       .  S
C883        C884   1.405       .  A
C883        C888   1.408       .  A
C883       Br890   1.934       .  S
C884        C885   1.406       .  A
C885        C886   1.409       .  A
C885       Br892   1.935       .  S
C886        C887   1.427       .  A
C886       Br891   1.939       .  S
C887        C888   1.424       .  A
C888       Br889   1.929       .  S
C893        C894   1.414       .  A
C893        C898   1.406       .  A
C893       Br900   1.936       .  S
C894        C895   1.403       .  A
C895        C896   1.411       .  A
C895       Br902   1.919       .  S
C896        C897   1.419       .  A
C896       Br901   1.930       .  S
C897        C898   1.416       .  A
C898       Br899   1.935       .  S
C903        C904   1.402       .  A
C903        C908   1.407       .  A
C903       Br910   1.936       .  S
C904        C905   1.406       .  A
C905        C906   1.406       .  A
C905       Br912   1.936       .  S
C906        C907   1.425       .  A
C906       Br911   1.936       .  S
C907        C908   1.431       .  A
C908       Br909   1.942       .  S
C913        C914   1.408       .  A
C913        C918   1.413       .  A
C913       Br920   1.931       .  S
C914        C915   1.407       .  A
C915        C916   1.404       .  A
C915       Br922   1.931       .  S
C916        C917   1.414       .  A
C916       Br921   1.932       .  S
C917        C918   1.417       .  A
C918       Br919   1.926       .  S
C923        C924   1.413       .  A
C923        C928   1.411       .  A
C923       Br930   1.930       .  S
C924        C925   1.409       .  A
C925        C926   1.404       .  A
C925       Br932   1.933       .  S
C926        C927   1.414       .  A
C926       Br931   1.934       .  S
C927        C928   1.408       .  A
C928       Br929   1.928       .  S
C933        C934   1.409       .  A
C933        C938   1.406       .  A
C933       Br940   1.931       .  S
C934        C935   1.411       .  A
C935        C936   1.412       .  A
C935       Br942   1.930       .  S
C936        C937   1.415       .  A
C936       Br941   1.925       .  S
C937        C938   1.411       .  A
C938       Br939   1.922       .  S
C943        C944   1.401       .  A
C943        C948   1.405       .  A
C943       Br950   1.935       .  S
C944        C945   1.404       .  A
C945        C946   1.409       .  A
C945       Br952   1.933       .  S
C946        C947   1.422       .  A
C946       Br951   1.927       .  S
C947        C948   1.430       .  A
C948       Br949   1.940       .  S
C953        C954   1.416       .  A
C953        C958   1.407       .  A
C953       Br960   1.922       .  S
C954        C955   1.422       .  A
C955        C956   1.410       .  A
C955       Br962   1.925       .  S
C956        C957   1.405       .  A
C956       Br961   1.933       .  S
C957        C958   1.407       .  A
C958       Br959   1.933       .  S
C963        C964   1.412       .  A
C963        C968   1.411       .  A
C963       Br970   1.930       .  S
C964        C965   1.407       .  A
C965        C966   1.397       .  A
C965       Br972   1.935       .  S
C966        C967   1.412       .  A
C966       Br971   1.932       .  S
C967        C968   1.411       .  A
C968       Br969   1.931       .  S
In973       O975   2.244       .  S
In973       O976   2.247       .  S
In973       O984   2.263       .  S
In973       O978   2.210       .  S
In973       O980   2.256       .  S
In973       O981   2.248       .  S
In973       O982   2.249       .  S
In973       O985   2.250       .  S
C974        O980   1.259       .  A
C974        O982   1.260       .  A
C974       C1065   1.466       .  S
O975        C983   1.259       .  A
O976        C983   1.260       .  A
C977        O984   1.260       .  A
C977        O978   1.257       .  A
C977       C1288   1.472       .  S
C979        O981   1.259       .  A
C979        O985   1.259       .  A
C979       C1022   1.463       .  S
C983       C1005   1.461       .  S
In986       O988   2.250       .  S
In986       O989   2.249       .  S
In986       O997   2.247       .  S
In986       O991   2.253       .  S
In986       O993   2.278       .  S
In986       O994   2.257       .  S
In986       O995   2.241       .  S
In986       O998   2.253       .  S
C987        O993   1.262       .  A
C987        O995   1.259       .  A
C987       C1013   1.472       .  S
O988        C996   1.262       .  A
O989        C996   1.261       .  A
C990        O997   1.258       .  A
C990        O991   1.260       .  A
C990       C1281   1.476       .  S
C992        O994   1.259       .  A
C992        O998   1.259       .  A
C992       C1074   1.467       .  S
C996       C1083   1.466       .  S
In999      O1001   2.233       .  S
In999      O1002   2.248       .  S
In999      O1010   2.250       .  S
In999      O1004   2.230       .  S
In999      O1006   2.240       .  S
In999      O1007   2.239       .  S
In999      O1008   2.236       .  S
In999      O1011   2.241       .  S
C1000      O1006   1.260       .  A
C1000      O1008   1.258       .  A
C1000      C1117   1.455       .  S
O1001      C1009   1.256       .  A
O1002      C1009   1.259       .  A
C1003      O1010   1.261       .  A
C1003      O1004   1.256       .  A
C1003      C1268   1.468       .  S
C1005      O2303   1.261       .  A
C1005      O2307   1.261       .  A
O1007      C2301   1.261   1_455  A
C1009      C1044   1.456       .  S
O1011      C2301   1.261   1_455  A
In1012     O1014   2.248       .  S
In1012     O1015   2.245       .  S
In1012     O1023   2.251       .  S
In1012     O1017   2.258       .  S
In1012     O1019   2.277       .  S
In1012     O1020   2.248       .  S
In1012     O1021   2.235       .  S
In1012     O1024   2.247       .  S
C1013      O1019   1.265       .  A
C1013      O1021   1.259       .  A
O1014      C1022   1.260       .  A
O1015      C1022   1.260       .  A
C1016      O1023   1.258       .  A
C1016      O1017   1.261       .  A
C1016      C1258   1.481       .  S
C1018      O1020   1.261       .  A
C1018      O1024   1.261       .  A
C1018      C1061   1.465       .  S
In1025     O1027   2.243       .  S
In1025     O1028   2.258       .  S
In1025     O1036   2.264       .  S
In1025     O1030   2.233       .  S
In1025     O1032   2.255       .  S
In1025     O1033   2.239       .  S
In1025     O1034   2.241       .  S
In1025     O1037   2.243       .  S
C1026      O1032   1.261       .  A
C1026      O1034   1.259       .  A
C1026      C1091   1.463       .  S
O1027      C2331   1.259       .  A
O1028      C2331   1.260       .  A
C1029      O1036   1.261       .  A
C1029      O1030   1.258       .  A
C1029      C1248   1.480       .  S
C1031      O1033   1.260       .  A
C1031      O1037   1.259       .  A
C1031      C1048   1.459       .  S
C1035      O2323   1.259       .  A
C1035      O2324   1.260       .  A
C1035      C1057   1.466       .  S
In1038     O1040   2.244       .  S
In1038     O1041   2.237       .  S
In1038     O1049   2.246       .  S
In1038     O1043   2.254       .  S
In1038     O1045   2.275       .  S
In1038     O1047   2.233       .  S
C1039      O1045   1.264       .  A
C1039      O1047   1.258       .  A
C1039      C1104   1.469       .  S
O1040      C1048   1.260       .  A
O1041      C1048   1.259       .  A
C1042      O1049   1.258       .  A
C1042      O1043   1.262       .  A
C1042      C1238   1.476       .  S
C1044      O1046   1.261   1_565  A
C1044      O1050   1.261   1_565  A
In1051     O1062   2.256       .  S
In1051     O1056   2.218       .  S
In1051     O1058   2.237       .  S
In1051     O1059   2.264       .  S
In1051     O1060   2.241       .  S
In1051     O1063   2.245       .  S
C1052      O1058   1.258       .  A
C1052      O1060   1.260       .  A
C1052      C1078   1.456       .  S
O1053      C1061   1.259       .  A
O1054      C1061   1.261       .  A
C1055      O1062   1.261       .  A
C1055      O1056   1.255       .  A
C1055      C1228   1.470       .  S
C1057      O1059   1.260       .  A
C1057      O1063   1.257       .  A
In1064     O1066   2.243       .  S
In1064     O1067   2.251       .  S
In1064     O1075   2.267       .  S
In1064     O1069   2.238       .  S
In1064     O1071   2.260       .  S
In1064     O1072   2.258       .  S
In1064     O1073   2.241       .  S
In1064     O1076   2.230       .  S
C1065      O1071   1.263       .  A
C1065      O1073   1.258       .  A
O1066      C1074   1.261       .  A
O1067      C1074   1.262       .  A
C1068      O1075   1.260       .  A
C1068      O1069   1.259       .  A
C1068      C1221   1.491       .  S
C1070      O1072   1.262       .  A
C1070      O1076   1.258       .  A
C1070      C1126   1.461       .  S
In1077     O1079   2.247       .  S
In1077     O1080   2.259       .  S
In1077     O1088   2.256       .  S
In1077     O1082   2.238       .  S
In1077     O1084   2.244       .  S
In1077     O1086   2.234       .  S
C1078      O1084   1.261       .  A
C1078      O1086   1.258       .  A
O1079      C1087   1.259       .  A
O1080      C1087   1.261       .  A
C1081      O1088   1.262       .  A
C1081      O1082   1.257       .  A
C1081      C1208   1.477       .  S
C1083      O1085   1.261       .  A
C1083      O1089   1.260       .  A
C1087      C1096   1.468       .  S
In1090     O1092   2.246       .  S
In1090     O1093   2.253       .  S
In1090     O1101   2.273       .  S
In1090     O1095   2.222       .  S
In1090     O1097   2.256       .  S
In1090     O1098   2.264       .  S
In1090     O1099   2.243       .  S
In1090     O1102   2.246       .  S
C1091      O1097   1.260       .  A
C1091      O1099   1.259       .  A
O1092      C1100   1.260       .  A
O1093      C1100   1.262       .  A
C1094      O1101   1.261       .  A
C1094      O1095   1.257       .  A
C1094      C1201   1.484       .  S
C1096      O2394   1.261       .  A
C1096      O2398   1.258       .  A
O1098      C2392   1.261       .  A
C1100      C1109   1.467       .  S
O1102      C2392   1.258       .  A
In1103     O1114   2.260       .  S
In1103     O1108   2.248       .  S
In1103     O1110   2.274       .  S
In1103     O1111   2.253       .  S
In1103     O1112   2.235       .  S
In1103     O1115   2.252       .  S
C1104      O1110   1.263       .  A
C1104      O1112   1.259       .  A
O1105      C1113   1.260       .  A
O1106      C1113   1.260       .  A
C1107      O1114   1.259       .  A
C1107      O1108   1.260       .  A
C1107      C1191   1.476       .  S
C1109      O1111   1.259       .  A
C1109      O1115   1.260       .  A
C1113      C1122   1.461       .  S
In1116     O1118   2.234       .  S
In1116     O1119   2.257       .  S
In1116     O1127   2.241       .  S
In1116     O1121   2.234       .  S
In1116     O1123   2.238       .  S
In1116     O1124   2.242       .  S
In1116     O1125   2.236       .  S
In1116     O1128   2.243       .  S
C1117      O1123   1.259       .  A
C1117      O1125   1.259       .  A
O1118      C2422   1.258   1_455  A
O1119      C2422   1.260   1_455  A
C1120      O1127   1.260       .  A
C1120      O1121   1.256       .  A
C1120      C1181   1.468       .  S
C1122      O1124   1.260       .  A
C1122      O1128   1.259       .  A
C1126      O2414   1.258       .  A
C1126      O2415   1.260       .  A
C1129      C1130   1.536       .  S
C1129      C1135   1.516       .  S
C1129      C1133   1.524       .  S
C1129      C1231   1.541       .  S
C1130      H1137   1.081       .  S
C1130      C1131   1.376       .  D
C1131      C1132   1.551       .  S
C1131      C1241   1.503       .  S
C1132      C1136   1.556       .  S
C1132      C1134   1.550       .  S
C1132      H1138   1.105       .  S
C1133      H1139   1.084       .  S
C1133      C1134   1.374       .  D
C1135      H1140   1.087       .  S
C1135      C1136   1.353       .  D
C1136      C1291   1.478       .  S
C1141      C1142   1.525       .  S
C1141      C1147   1.549       .  S
C1141      C1145   1.508       .  S
C1141      C1211   1.545       .  S
C1142      H1149   1.086       .  S
C1142      C1143   1.363       .  D
C1143      C1144   1.558       .  S
C1143      C1218   1.490       .  S
C1144      C1148   1.549       .  S
C1144      C1146   1.559       .  S
C1144      H1150   1.104       .  S
C1145      H1151   1.086       .  S
C1145      C1146   1.363       .  D
C1147      H1152   1.087       .  S
C1147      C1148   1.381       .  D
C1148      C1188   1.515       .  S
C1153      C1154   1.543       .  S
C1153      C1159   1.529       .  S
C1153      C1157   1.510       .  S
C1153      C1271   1.543       .  S
C1154      H1161   1.081       .  S
C1154      C1155   1.380       .  D
C1155      C1156   1.549       .  S
C1155      C1261   1.503       .  S
C1156      C1160   1.558       .  S
C1156      C1158   1.552       .  S
C1156      H1162   1.105       .  S
C1157      H1163   1.085       .  S
C1157      C1158   1.367       .  D
C1159      H1164   1.086       .  S
C1159      C1160   1.359       .  D
C1160      C1251   1.486       .  S
C1165      C1166   1.521       .  S
C1165      C1171   1.545       .  S
C1165      C1169   1.507       .  S
C1165      C1178   1.539       .  S
C1166      H1173   1.086       .  S
C1166      C1167   1.362       .  D
C1167      C1168   1.559       .  S
C1167      C1198   1.485       .  S
C1168      C1172   1.549       .  S
C1168      C1170   1.556       .  S
C1168      H1174   1.104       .  S
C1169      H1175   1.081       .  S
C1169      C1170   1.365       .  D
C1171      H1176   1.086       .  S
C1171      C1172   1.378       .  D
C1172      C1278   1.510       .  S
C1177      C1178   1.427       .  A
C1177      C1182   1.407       .  A
C1177     Br1184   1.940       .  S
C1178      C1179   1.425       .  A
C1179      C1180   1.404       .  A
C1179     Br1186   1.930       .  S
C1180      C1181   1.403       .  A
C1180     Br1185   1.936       .  S
C1181      C1182   1.405       .  A
C1182     Br1183   1.934       .  S
C1187      C1188   1.417       .  A
C1187      C1192   1.409       .  A
C1187     Br1194   1.923       .  S
C1188      C1189   1.426       .  A
C1189      C1190   1.412       .  A
C1189     Br1196   1.925       .  S
C1190      C1191   1.403       .  A
C1190     Br1195   1.935       .  S
C1191      C1192   1.405       .  A
C1192     Br1193   1.929       .  S
C1197      C1198   1.414       .  A
C1197      C1202   1.402       .  A
C1197     Br1204   1.937       .  S
C1198      C1199   1.404       .  A
C1199      C1200   1.410       .  A
C1199     Br1206   1.917       .  S
C1200      C1201   1.415       .  A
C1200     Br1205   1.929       .  S
C1201      C1202   1.413       .  A
C1202     Br1203   1.935       .  S
C1207      C1208   1.405       .  A
C1207      C1212   1.408       .  A
C1207     Br1214   1.934       .  S
C1208      C1209   1.406       .  A
C1209      C1210   1.409       .  A
C1209     Br1216   1.935       .  S
C1210      C1211   1.427       .  A
C1210     Br1215   1.939       .  S
C1211      C1212   1.424       .  A
C1212     Br1213   1.929       .  S
C1217      C1218   1.414       .  A
C1217      C1222   1.406       .  A
C1217     Br1224   1.936       .  S
C1218      C1219   1.403       .  A
C1219      C1220   1.411       .  A
C1219     Br1226   1.919       .  S
C1220      C1221   1.419       .  A
C1220     Br1225   1.930       .  S
C1221      C1222   1.416       .  A
C1222     Br1223   1.935       .  S
C1227      C1228   1.402       .  A
C1227      C1232   1.407       .  A
C1227     Br1234   1.936       .  S
C1228      C1229   1.406       .  A
C1229      C1230   1.406       .  A
C1229     Br1236   1.936       .  S
C1230      C1231   1.425       .  A
C1230     Br1235   1.936       .  S
C1231      C1232   1.431       .  A
C1232     Br1233   1.942       .  S
C1237      C1238   1.408       .  A
C1237      C1242   1.413       .  A
C1237     Br1244   1.931       .  S
C1238      C1239   1.407       .  A
C1239      C1240   1.404       .  A
C1239     Br1246   1.931       .  S
C1240      C1241   1.414       .  A
C1240     Br1245   1.932       .  S
C1241      C1242   1.417       .  A
C1242     Br1243   1.926       .  S
C1247      C1248   1.413       .  A
C1247      C1252   1.411       .  A
C1247     Br1254   1.930       .  S
C1248      C1249   1.409       .  A
C1249      C1250   1.404       .  A
C1249     Br1256   1.933       .  S
C1250      C1251   1.414       .  A
C1250     Br1255   1.934       .  S
C1251      C1252   1.408       .  A
C1252     Br1253   1.928       .  S
C1257      C1258   1.409       .  A
C1257      C1262   1.406       .  A
C1257     Br1264   1.931       .  S
C1258      C1259   1.411       .  A
C1259      C1260   1.412       .  A
C1259     Br1266   1.930       .  S
C1260      C1261   1.415       .  A
C1260     Br1265   1.925       .  S
C1261      C1262   1.411       .  A
C1262     Br1263   1.922       .  S
C1267      C1268   1.401       .  A
C1267      C1272   1.405       .  A
C1267     Br1274   1.935       .  S
C1268      C1269   1.404       .  A
C1269      C1270   1.409       .  A
C1269     Br1276   1.933       .  S
C1270      C1271   1.422       .  A
C1270     Br1275   1.927       .  S
C1271      C1272   1.430       .  A
C1272     Br1273   1.940       .  S
C1277      C1278   1.416       .  A
C1277      C1282   1.407       .  A
C1277     Br1284   1.922       .  S
C1278      C1279   1.422       .  A
C1279      C1280   1.410       .  A
C1279     Br1286   1.925       .  S
C1280      C1281   1.405       .  A
C1280     Br1285   1.933       .  S
C1281      C1282   1.407       .  A
C1282     Br1283   1.933       .  S
C1287      C1288   1.412       .  A
C1287      C1292   1.411       .  A
C1287     Br1294   1.930       .  S
C1288      C1289   1.407       .  A
C1289      C1290   1.397       .  A
C1289     Br1296   1.935       .  S
C1290      C1291   1.412       .  A
C1290     Br1295   1.932       .  S
C1291      C1292   1.411       .  A
C1292     Br1293   1.931       .  S
In1297     O1299   2.244       .  S
In1297     O1300   2.247       .  S
In1297     O1308   2.263       .  S
In1297     O1302   2.210       .  S
In1297     O1304   2.256       .  S
In1297     O1305   2.248       .  S
In1297     O1306   2.249       .  S
In1297     O1309   2.250       .  S
C1298      O1304   1.259       .  A
C1298      O1306   1.260       .  A
C1298      C1389   1.466       .  S
O1299      C1307   1.259       .  A
O1300      C1307   1.260       .  A
C1301      O1308   1.260       .  A
C1301      O1302   1.257       .  A
C1301      C1612   1.472       .  S
C1303      O1305   1.259       .  A
C1303      O1309   1.259       .  A
C1303      C1346   1.463       .  S
C1307      C1329   1.461       .  S
In1310     O1312   2.250       .  S
In1310     O1313   2.249       .  S
In1310     O1321   2.247       .  S
In1310     O1315   2.253       .  S
In1310     O1317   2.278       .  S
In1310     O1318   2.257       .  S
In1310     O1319   2.241       .  S
In1310     O1322   2.253       .  S
C1311      O1317   1.262       .  A
C1311      O1319   1.259       .  A
C1311      C1337   1.472       .  S
O1312      C1320   1.262       .  A
O1313      C1320   1.261       .  A
C1314      O1321   1.258       .  A
C1314      O1315   1.260       .  A
C1314      C1605   1.476       .  S
C1316      O1318   1.259       .  A
C1316      O1322   1.259       .  A
C1316      C1398   1.467       .  S
C1320      C1407   1.466       .  S
In1323     O1325   2.233       .  S
In1323     O1326   2.248       .  S
In1323     O1334   2.250       .  S
In1323     O1328   2.230       .  S
In1323     O1330   2.240       .  S
In1323     O1331   2.239       .  S
In1323     O1332   2.236       .  S
In1323     O1335   2.241       .  S
C1324      O1330   1.260       .  A
C1324      O1332   1.258       .  A
C1324      C1441   1.455       .  S
O1325      C1333   1.256       .  A
O1326      C1333   1.259       .  A
C1327      O1334   1.261       .  A
C1327      O1328   1.256       .  A
C1327      C1592   1.468       .  S
C1333      C1368   1.456       .  S
In1336     O1338   2.248       .  S
In1336     O1339   2.245       .  S
In1336     O1347   2.251       .  S
In1336     O1341   2.258       .  S
In1336     O1343   2.277       .  S
In1336     O1344   2.248       .  S
In1336     O1345   2.235       .  S
In1336     O1348   2.247       .  S
C1337      O1343   1.265       .  A
C1337      O1345   1.259       .  A
O1338      C1346   1.260       .  A
O1339      C1346   1.260       .  A
C1340      O1347   1.258       .  A
C1340      O1341   1.261       .  A
C1340      C1582   1.481       .  S
C1342      O1344   1.261       .  A
C1342      O1348   1.261       .  A
C1342      C1385   1.465       .  S
In1349     O1351   2.243       .  S
In1349     O1352   2.258       .  S
In1349     O1360   2.264       .  S
In1349     O1354   2.233       .  S
In1349     O1356   2.255       .  S
In1349     O1357   2.239       .  S
In1349     O1358   2.241       .  S
In1349     O1361   2.243       .  S
C1350      O1356   1.261       .  A
C1350      O1358   1.259       .  A
C1350      C1415   1.463       .  S
C1353      O1360   1.261       .  A
C1353      O1354   1.258       .  A
C1353      C1572   1.480       .  S
C1355      O1357   1.260       .  A
C1355      O1361   1.259       .  A
C1355      C1372   1.459       .  S
C1359      C1381   1.466   1_455  S
In1362     O1364   2.244       .  S
In1362     O1365   2.237       .  S
In1362     O1373   2.246       .  S
In1362     O1367   2.254       .  S
In1362     O1369   2.275       .  S
In1362     O2018   2.236       .  S
In1362     O1371   2.233       .  S
In1362     O2022   2.231       .  S
C1363      O1369   1.264       .  A
C1363      O1371   1.258       .  A
C1363      C1428   1.469       .  S
O1364      C1372   1.260       .  A
O1365      C1372   1.259       .  A
C1366      O1373   1.258       .  A
C1366      O1367   1.262       .  A
C1366      C1562   1.476       .  S
C1368      O1370   1.261       .  A
C1368      O1374   1.261       .  A
O1370     In2010   2.236       .  S
O1374     In2010   2.231       .  S
In1375     O2025   2.245   1_545  S
In1375     O2026   2.255   1_545  S
In1375     O1386   2.256       .  S
In1375     O1380   2.218       .  S
In1375     O1382   2.237       .  S
In1375     O1383   2.264       .  S
In1375     O1384   2.241       .  S
In1375     O1387   2.245       .  S
C1376      O1382   1.258       .  A
C1376      O1384   1.260       .  A
C1376      C1402   1.456       .  S
O1377     In2023   2.245       .  S
O1377      C1385   1.259       .  A
O1378     In2023   2.255       .  S
O1378      C1385   1.261       .  A
C1379      O1386   1.261       .  A
C1379      O1380   1.255       .  A
C1379      C1552   1.470       .  S
C1381      O1383   1.260       .  A
C1381      O1387   1.257       .  A
In1388     O1390   2.243       .  S
In1388     O1391   2.251       .  S
In1388     O1399   2.267       .  S
In1388     O1393   2.238       .  S
In1388     O1395   2.260       .  S
In1388     O1396   2.258       .  S
In1388     O1397   2.241       .  S
In1388     O1400   2.230       .  S
C1389      O1395   1.263       .  A
C1389      O1397   1.258       .  A
O1390      C1398   1.261       .  A
O1391      C1398   1.262       .  A
C1392      O1399   1.260       .  A
C1392      O1393   1.259       .  A
C1392      C1545   1.491       .  S
C1394      O1396   1.262       .  A
C1394      O1400   1.258       .  A
C1394      C1450   1.461       .  S
In1401     O1403   2.247       .  S
In1401     O1404   2.259       .  S
In1401     O1412   2.256       .  S
In1401     O1406   2.238       .  S
In1401     O1408   2.244       .  S
In1401     O2057   2.250   1_545  S
In1401     O1410   2.234       .  S
In1401     O2061   2.248   1_545  S
C1402      O1408   1.261       .  A
C1402      O1410   1.258       .  A
O1403      C1411   1.259       .  A
O1404      C1411   1.261       .  A
C1405      O1412   1.262       .  A
C1405      O1406   1.257       .  A
C1405      C1532   1.477       .  S
C1407      O1409   1.261       .  A
C1407      O1413   1.260       .  A
O1409     In2049   2.250       .  S
C1411      C1420   1.468   1_655  S
O1413     In2049   2.248       .  S
In1414     O1416   2.246       .  S
In1414     O1417   2.253       .  S
In1414     O1425   2.273       .  S
In1414     O1419   2.222       .  S
In1414     O1421   2.256       .  S
In1414     O1422   2.264       .  S
In1414     O1423   2.243       .  S
In1414     O1426   2.246       .  S
C1415      O1421   1.260       .  A
C1415      O1423   1.259       .  A
O1416      C1424   1.260       .  A
O1417      C1424   1.262       .  A
C1418      O1425   1.261       .  A
C1418      O1419   1.257       .  A
C1418      C1525   1.484       .  S
C1424      C1433   1.467       .  S
In1427     O2077   2.245   1_545  S
In1427     O2078   2.241   1_545  S
In1427     O1438   2.260       .  S
In1427     O1432   2.248       .  S
In1427     O1434   2.274       .  S
In1427     O1435   2.253       .  S
In1427     O1436   2.235       .  S
In1427     O1439   2.252       .  S
C1428      O1434   1.263       .  A
C1428      O1436   1.259       .  A
O1429     In2075   2.245       .  S
O1429      C1437   1.260       .  A
O1430     In2075   2.241       .  S
O1430      C1437   1.260       .  A
C1431      O1438   1.259       .  A
C1431      O1432   1.260       .  A
C1431      C1515   1.476       .  S
C1433      O1435   1.259       .  A
C1433      O1439   1.260       .  A
C1437      C1446   1.461       .  S
In1440     O1442   2.234       .  S
In1440     O1443   2.257       .  S
In1440     O1451   2.241       .  S
In1440     O1445   2.234       .  S
In1440     O1447   2.238       .  S
In1440     O1448   2.242       .  S
In1440     O1449   2.236       .  S
In1440     O1452   2.243       .  S
C1441      O1447   1.259       .  A
C1441      O1449   1.259       .  A
C1444      O1451   1.260       .  A
C1444      O1445   1.256       .  A
C1444      C1505   1.468       .  S
C1446      O1448   1.260       .  A
C1446      O1452   1.259       .  A
C1453      C1454   1.536       .  S
C1453      C1459   1.516       .  S
C1453      C1457   1.524       .  S
C1453      C1555   1.541       .  S
C1454      H1461   1.081       .  S
C1454      C1455   1.376       .  D
C1455      C1456   1.551       .  S
C1455      C1565   1.503       .  S
C1456      C1460   1.556       .  S
C1456      C1458   1.550       .  S
C1456      H1462   1.105       .  S
C1457      H1463   1.084       .  S
C1457      C1458   1.374       .  D
C1458      C1794   1.507   1_554  S
C1459      H1464   1.087       .  S
C1459      C1460   1.353       .  D
C1460      C1615   1.478       .  S
C1465      C1466   1.525       .  S
C1465      C1471   1.549       .  S
C1465      C1469   1.508       .  S
C1465      C1535   1.545       .  S
C1466      H1473   1.086       .  S
C1466      C1467   1.363       .  D
C1467      C1468   1.558       .  S
C1467      C1542   1.490       .  S
C1468      C1472   1.549       .  S
C1468      C1470   1.559       .  S
C1468      H1474   1.104       .  S
C1469      H1475   1.086       .  S
C1469      C1470   1.363       .  D
C1470      C1782   1.507       .  S
C1471      H1476   1.087       .  S
C1471      C1472   1.381       .  D
C1472      C1512   1.515       .  S
C1477      C1478   1.543       .  S
C1477      C1483   1.529       .  S
C1477      C1481   1.510       .  S
C1477      C1595   1.543       .  S
C1478      H1485   1.081       .  S
C1478      C1479   1.380       .  D
C1479      C1480   1.549       .  S
C1479      C1585   1.503       .  S
C1480      C1484   1.558       .  S
C1480      C1482   1.552       .  S
C1480      H1486   1.105       .  S
C1481      H1487   1.085       .  S
C1481      C1482   1.367       .  D
C1482      C1818   1.508   1_554  S
C1483      H1488   1.086       .  S
C1483      C1484   1.359       .  D
C1484      C1575   1.486       .  S
C1489      C1490   1.521       .  S
C1489      C1495   1.545       .  S
C1489      C1493   1.507       .  S
C1489      C1502   1.539       .  S
C1490      H1497   1.086       .  S
C1490      C1491   1.362       .  D
C1491      C1492   1.559       .  S
C1491      C1522   1.485       .  S
C1492      C1496   1.549       .  S
C1492      C1494   1.556       .  S
C1492      H1498   1.104       .  S
C1493      H1499   1.081       .  S
C1493      C1494   1.365       .  D
C1494      C1806   1.508       .  S
C1495      H1500   1.086       .  S
C1495      C1496   1.378       .  D
C1496      C1602   1.510       .  S
C1501      C1502   1.427       .  A
C1501      C1506   1.407       .  A
C1501     Br1508   1.940       .  S
C1502      C1503   1.425       .  A
C1503      C1504   1.404       .  A
C1503     Br1510   1.930       .  S
C1504      C1505   1.403       .  A
C1504     Br1509   1.936       .  S
C1505      C1506   1.405       .  A
C1506     Br1507   1.934       .  S
C1511      C1512   1.417       .  A
C1511      C1516   1.409       .  A
C1511     Br1518   1.923       .  S
C1512      C1513   1.426       .  A
C1513      C1514   1.412       .  A
C1513     Br1520   1.925       .  S
C1514      C1515   1.403       .  A
C1514     Br1519   1.935       .  S
C1515      C1516   1.405       .  A
C1516     Br1517   1.929       .  S
C1521      C1522   1.414       .  A
C1521      C1526   1.402       .  A
C1521     Br1528   1.937       .  S
C1522      C1523   1.404       .  A
C1523      C1524   1.410       .  A
C1523     Br1530   1.917       .  S
C1524      C1525   1.415       .  A
C1524     Br1529   1.929       .  S
C1525      C1526   1.413       .  A
C1526     Br1527   1.935       .  S
C1531      C1532   1.405       .  A
C1531      C1536   1.408       .  A
C1531     Br1538   1.934       .  S
C1532      C1533   1.406       .  A
C1533      C1534   1.409       .  A
C1533     Br1540   1.935       .  S
C1534      C1535   1.427       .  A
C1534     Br1539   1.939       .  S
C1535      C1536   1.424       .  A
C1536     Br1537   1.929       .  S
C1541      C1542   1.414       .  A
C1541      C1546   1.406       .  A
C1541     Br1548   1.936       .  S
C1542      C1543   1.403       .  A
C1543      C1544   1.411       .  A
C1543     Br1550   1.919       .  S
C1544      C1545   1.419       .  A
C1544     Br1549   1.930       .  S
C1545      C1546   1.416       .  A
C1546     Br1547   1.935       .  S
C1551      C1552   1.402       .  A
C1551      C1556   1.407       .  A
C1551     Br1558   1.936       .  S
C1552      C1553   1.406       .  A
C1553      C1554   1.406       .  A
C1553     Br1560   1.936       .  S
C1554      C1555   1.425       .  A
C1554     Br1559   1.936       .  S
C1555      C1556   1.431       .  A
C1556     Br1557   1.942       .  S
C1561      C1562   1.408       .  A
C1561      C1566   1.413       .  A
C1561     Br1568   1.931       .  S
C1562      C1563   1.407       .  A
C1563      C1564   1.404       .  A
C1563     Br1570   1.931       .  S
C1564      C1565   1.414       .  A
C1564     Br1569   1.932       .  S
C1565      C1566   1.417       .  A
C1566     Br1567   1.926       .  S
C1571      C1572   1.413       .  A
C1571      C1576   1.411       .  A
C1571     Br1578   1.930       .  S
C1572      C1573   1.409       .  A
C1573      C1574   1.404       .  A
C1573     Br1580   1.933       .  S
C1574      C1575   1.414       .  A
C1574     Br1579   1.934       .  S
C1575      C1576   1.408       .  A
C1576     Br1577   1.928       .  S
C1581      C1582   1.409       .  A
C1581      C1586   1.406       .  A
C1581     Br1588   1.931       .  S
C1582      C1583   1.411       .  A
C1583      C1584   1.412       .  A
C1583     Br1590   1.930       .  S
C1584      C1585   1.415       .  A
C1584     Br1589   1.925       .  S
C1585      C1586   1.411       .  A
C1586     Br1587   1.922       .  S
C1591      C1592   1.401       .  A
C1591      C1596   1.405       .  A
C1591     Br1598   1.935       .  S
C1592      C1593   1.404       .  A
C1593      C1594   1.409       .  A
C1593     Br1600   1.933       .  S
C1594      C1595   1.422       .  A
C1594     Br1599   1.927       .  S
C1595      C1596   1.430       .  A
C1596     Br1597   1.940       .  S
C1601      C1602   1.416       .  A
C1601      C1606   1.407       .  A
C1601     Br1608   1.922       .  S
C1602      C1603   1.422       .  A
C1603      C1604   1.410       .  A
C1603     Br1610   1.925       .  S
C1604      C1605   1.405       .  A
C1604     Br1609   1.933       .  S
C1605      C1606   1.407       .  A
C1606     Br1607   1.933       .  S
C1611      C1612   1.412       .  A
C1611      C1616   1.411       .  A
C1611     Br1618   1.930       .  S
C1612      C1613   1.407       .  A
C1613      C1614   1.397       .  A
C1613     Br1620   1.935       .  S
C1614      C1615   1.412       .  A
C1614     Br1619   1.932       .  S
C1615      C1616   1.411       .  A
C1616     Br1617   1.931       .  S
In1621     O1623   2.244       .  S
In1621     O1624   2.247       .  S
In1621     O1632   2.263       .  S
In1621     O1626   2.210       .  S
In1621     O1628   2.256       .  S
In1621     O1629   2.248       .  S
In1621     O1630   2.249       .  S
In1621     O1633   2.250       .  S
C1622      O1628   1.259       .  A
C1622      O1630   1.260       .  A
C1622      C1713   1.466       .  S
O1623      C1631   1.259       .  A
O1624      C1631   1.260       .  A
C1625      O1632   1.260       .  A
C1625      O1626   1.257       .  A
C1625      C1936   1.472       .  S
C1627      O1629   1.259       .  A
C1627      O1633   1.259       .  A
C1627      C1670   1.463       .  S
C1631      C1653   1.461       .  S
In1634     O1636   2.250       .  S
In1634     O1637   2.249       .  S
In1634     O1645   2.247       .  S
In1634     O1639   2.253       .  S
In1634     O1641   2.278       .  S
In1634     O1642   2.257       .  S
In1634     O1643   2.241       .  S
In1634     O1646   2.253       .  S
C1635      O1641   1.262       .  A
C1635      O1643   1.259       .  A
C1635      C1661   1.472       .  S
O1636      C1644   1.262       .  A
O1637      C1644   1.261       .  A
C1638      O1645   1.258       .  A
C1638      O1639   1.260       .  A
C1638      C1929   1.476       .  S
C1640      O1642   1.259       .  A
C1640      O1646   1.259       .  A
C1640      C1722   1.467       .  S
C1644      C1731   1.466       .  S
In1647     O1649   2.233       .  S
In1647     O1650   2.248       .  S
In1647     O1658   2.250       .  S
In1647     O1652   2.230       .  S
In1647     O1654   2.240       .  S
In1647     O1655   2.239       .  S
In1647     O1656   2.236       .  S
In1647     O1659   2.241       .  S
C1648      O1654   1.260       .  A
C1648      O1656   1.258       .  A
C1648      C1765   1.455       .  S
O1649      C1657   1.256       .  A
O1650      C1657   1.259       .  A
C1651      O1658   1.261       .  A
C1651      O1652   1.256       .  A
C1651      C1916   1.468       .  S
C1657      C1692   1.456       .  S
In1660     O1662   2.248       .  S
In1660     O1663   2.245       .  S
In1660     O1671   2.251       .  S
In1660     O1665   2.258       .  S
In1660     O1667   2.277       .  S
In1660     O1668   2.248       .  S
In1660     O1669   2.235       .  S
In1660     O1672   2.247       .  S
C1661      O1667   1.265       .  A
C1661      O1669   1.259       .  A
O1662      C1670   1.260       .  A
O1663      C1670   1.260       .  A
C1664      O1671   1.258       .  A
C1664      O1665   1.261       .  A
C1664      C1906   1.481       .  S
C1666      O1668   1.261       .  A
C1666      O1672   1.261       .  A
C1666      C1709   1.465       .  S
In1673     O1675   2.243       .  S
In1673     O1676   2.258       .  S
In1673     O1684   2.264       .  S
In1673     O1678   2.233       .  S
In1673     O1680   2.255       .  S
In1673     O1681   2.239       .  S
In1673     O1682   2.241       .  S
In1673     O1685   2.243       .  S
C1674      O1680   1.261       .  A
C1674      O1682   1.259       .  A
C1674      C1739   1.463       .  S
C1677      O1684   1.261       .  A
C1677      O1678   1.258       .  A
C1677      C1896   1.480       .  S
C1679      O1681   1.260       .  A
C1679      O1685   1.259       .  A
C1679      C1696   1.459       .  S
C1683      C1705   1.466   1_455  S
In1686     O1688   2.244       .  S
In1686     O1689   2.237       .  S
In1686     O1697   2.246       .  S
In1686     O1691   2.254       .  S
In1686     O1693   2.275       .  S
In1686     O2342   2.236       .  S
In1686     O1695   2.233       .  S
In1686     O2346   2.231       .  S
C1687      O1693   1.264       .  A
C1687      O1695   1.258       .  A
C1687      C1752   1.469       .  S
O1688      C1696   1.260       .  A
O1689      C1696   1.259       .  A
C1690      O1697   1.258       .  A
C1690      O1691   1.262       .  A
C1690      C1886   1.476       .  S
C1692      O1694   1.261       .  A
C1692      O1698   1.261       .  A
O1694     In2334   2.236       .  S
O1698     In2334   2.231       .  S
In1699     O2349   2.245   1_545  S
In1699     O2350   2.255   1_545  S
In1699     O1710   2.256       .  S
In1699     O1704   2.218       .  S
In1699     O1706   2.237       .  S
In1699     O1707   2.264       .  S
In1699     O1708   2.241       .  S
In1699     O1711   2.245       .  S
C1700      O1706   1.258       .  A
C1700      O1708   1.260       .  A
C1700      C1726   1.456       .  S
O1701     In2347   2.245       .  S
O1701      C1709   1.259       .  A
O1702     In2347   2.255       .  S
O1702      C1709   1.261       .  A
C1703      O1710   1.261       .  A
C1703      O1704   1.255       .  A
C1703      C1876   1.470       .  S
C1705      O1707   1.260       .  A
C1705      O1711   1.257       .  A
In1712     O1714   2.243       .  S
In1712     O1715   2.251       .  S
In1712     O1723   2.267       .  S
In1712     O1717   2.238       .  S
In1712     O1719   2.260       .  S
In1712     O1720   2.258       .  S
In1712     O1721   2.241       .  S
In1712     O1724   2.230       .  S
C1713      O1719   1.263       .  A
C1713      O1721   1.258       .  A
O1714      C1722   1.261       .  A
O1715      C1722   1.262       .  A
C1716      O1723   1.260       .  A
C1716      O1717   1.259       .  A
C1716      C1869   1.491       .  S
C1718      O1720   1.262       .  A
C1718      O1724   1.258       .  A
C1718      C1774   1.461       .  S
In1725     O1727   2.247       .  S
In1725     O1728   2.259       .  S
In1725     O1736   2.256       .  S
In1725     O1730   2.238       .  S
In1725     O1732   2.244       .  S
In1725     O2381   2.250   1_545  S
In1725     O1734   2.234       .  S
In1725     O2385   2.248   1_545  S
C1726      O1732   1.261       .  A
C1726      O1734   1.258       .  A
O1727      C1735   1.259       .  A
O1728      C1735   1.261       .  A
C1729      O1736   1.262       .  A
C1729      O1730   1.257       .  A
C1729      C1856   1.477       .  S
C1731      O1733   1.261       .  A
C1731      O1737   1.260       .  A
O1733     In2373   2.250       .  S
C1735      C1744   1.468   1_655  S
O1737     In2373   2.248       .  S
In1738     O1740   2.246       .  S
In1738     O1741   2.253       .  S
In1738     O1749   2.273       .  S
In1738     O1743   2.222       .  S
In1738     O1745   2.256       .  S
In1738     O1746   2.264       .  S
In1738     O1747   2.243       .  S
In1738     O1750   2.246       .  S
C1739      O1745   1.260       .  A
C1739      O1747   1.259       .  A
O1740      C1748   1.260       .  A
O1741      C1748   1.262       .  A
C1742      O1749   1.261       .  A
C1742      O1743   1.257       .  A
C1742      C1849   1.484       .  S
C1748      C1757   1.467       .  S
In1751     O2401   2.245   1_545  S
In1751     O2402   2.241   1_545  S
In1751     O1762   2.260       .  S
In1751     O1756   2.248       .  S
In1751     O1758   2.274       .  S
In1751     O1759   2.253       .  S
In1751     O1760   2.235       .  S
In1751     O1763   2.252       .  S
C1752      O1758   1.263       .  A
C1752      O1760   1.259       .  A
O1753     In2399   2.245       .  S
O1753      C1761   1.260       .  A
O1754     In2399   2.241       .  S
O1754      C1761   1.260       .  A
C1755      O1762   1.259       .  A
C1755      O1756   1.260       .  A
C1755      C1839   1.476       .  S
C1757      O1759   1.259       .  A
C1757      O1763   1.260       .  A
C1761      C1770   1.461       .  S
In1764     O1766   2.234       .  S
In1764     O1767   2.257       .  S
In1764     O1775   2.241       .  S
In1764     O1769   2.234       .  S
In1764     O1771   2.238       .  S
In1764     O1772   2.242       .  S
In1764     O1773   2.236       .  S
In1764     O1776   2.243       .  S
C1765      O1771   1.259       .  A
C1765      O1773   1.259       .  A
C1768      O1775   1.260       .  A
C1768      O1769   1.256       .  A
C1768      C1829   1.468       .  S
C1770      O1772   1.260       .  A
C1770      O1776   1.259       .  A
C1777      C1778   1.536       .  S
C1777      C1783   1.516       .  S
C1777      C1781   1.524       .  S
C1777      C1879   1.541       .  S
C1778      H1785   1.081       .  S
C1778      C1779   1.376       .  D
C1779      C1780   1.551       .  S
C1779      C1889   1.503       .  S
C1780      C1784   1.556       .  S
C1780      C1782   1.550       .  S
C1780      H1786   1.105       .  S
C1781      H1787   1.084       .  S
C1781      C1782   1.374       .  D
C1783      H1788   1.087       .  S
C1783      C1784   1.353       .  D
C1784      C1939   1.478       .  S
C1789      C1790   1.525       .  S
C1789      C1795   1.549       .  S
C1789      C1793   1.508       .  S
C1789      C1859   1.545       .  S
C1790      H1797   1.086       .  S
C1790      C1791   1.363       .  D
C1791      C1792   1.558       .  S
C1791      C1866   1.490       .  S
C1792      C1796   1.549       .  S
C1792      C1794   1.559       .  S
C1792      H1798   1.104       .  S
C1793      H1799   1.086       .  S
C1793      C1794   1.363       .  D
C1795      H1800   1.087       .  S
C1795      C1796   1.381       .  D
C1796      C1836   1.515       .  S
C1801      C1802   1.543       .  S
C1801      C1807   1.529       .  S
C1801      C1805   1.510       .  S
C1801      C1919   1.543       .  S
C1802      H1809   1.081       .  S
C1802      C1803   1.380       .  D
C1803      C1804   1.549       .  S
C1803      C1909   1.503       .  S
C1804      C1808   1.558       .  S
C1804      C1806   1.552       .  S
C1804      H1810   1.105       .  S
C1805      H1811   1.085       .  S
C1805      C1806   1.367       .  D
C1807      H1812   1.086       .  S
C1807      C1808   1.359       .  D
C1808      C1899   1.486       .  S
C1813      C1814   1.521       .  S
C1813      C1819   1.545       .  S
C1813      C1817   1.507       .  S
C1813      C1826   1.539       .  S
C1814      H1821   1.086       .  S
C1814      C1815   1.362       .  D
C1815      C1816   1.559       .  S
C1815      C1846   1.485       .  S
C1816      C1820   1.549       .  S
C1816      C1818   1.556       .  S
C1816      H1822   1.104       .  S
C1817      H1823   1.081       .  S
C1817      C1818   1.365       .  D
C1819      H1824   1.086       .  S
C1819      C1820   1.378       .  D
C1820      C1926   1.510       .  S
C1825      C1826   1.427       .  A
C1825      C1830   1.407       .  A
C1825     Br1832   1.940       .  S
C1826      C1827   1.425       .  A
C1827      C1828   1.404       .  A
C1827     Br1834   1.930       .  S
C1828      C1829   1.403       .  A
C1828     Br1833   1.936       .  S
C1829      C1830   1.405       .  A
C1830     Br1831   1.934       .  S
C1835      C1836   1.417       .  A
C1835      C1840   1.409       .  A
C1835     Br1842   1.923       .  S
C1836      C1837   1.426       .  A
C1837      C1838   1.412       .  A
C1837     Br1844   1.925       .  S
C1838      C1839   1.403       .  A
C1838     Br1843   1.935       .  S
C1839      C1840   1.405       .  A
C1840     Br1841   1.929       .  S
C1845      C1846   1.414       .  A
C1845      C1850   1.402       .  A
C1845     Br1852   1.937       .  S
C1846      C1847   1.404       .  A
C1847      C1848   1.410       .  A
C1847     Br1854   1.917       .  S
C1848      C1849   1.415       .  A
C1848     Br1853   1.929       .  S
C1849      C1850   1.413       .  A
C1850     Br1851   1.935       .  S
C1855      C1856   1.405       .  A
C1855      C1860   1.408       .  A
C1855     Br1862   1.934       .  S
C1856      C1857   1.406       .  A
C1857      C1858   1.409       .  A
C1857     Br1864   1.935       .  S
C1858      C1859   1.427       .  A
C1858     Br1863   1.939       .  S
C1859      C1860   1.424       .  A
C1860     Br1861   1.929       .  S
C1865      C1866   1.414       .  A
C1865      C1870   1.406       .  A
C1865     Br1872   1.936       .  S
C1866      C1867   1.403       .  A
C1867      C1868   1.411       .  A
C1867     Br1874   1.919       .  S
C1868      C1869   1.419       .  A
C1868     Br1873   1.930       .  S
C1869      C1870   1.416       .  A
C1870     Br1871   1.935       .  S
C1875      C1876   1.402       .  A
C1875      C1880   1.407       .  A
C1875     Br1882   1.936       .  S
C1876      C1877   1.406       .  A
C1877      C1878   1.406       .  A
C1877     Br1884   1.936       .  S
C1878      C1879   1.425       .  A
C1878     Br1883   1.936       .  S
C1879      C1880   1.431       .  A
C1880     Br1881   1.942       .  S
C1885      C1886   1.408       .  A
C1885      C1890   1.413       .  A
C1885     Br1892   1.931       .  S
C1886      C1887   1.407       .  A
C1887      C1888   1.404       .  A
C1887     Br1894   1.931       .  S
C1888      C1889   1.414       .  A
C1888     Br1893   1.932       .  S
C1889      C1890   1.417       .  A
C1890     Br1891   1.926       .  S
C1895      C1896   1.413       .  A
C1895      C1900   1.411       .  A
C1895     Br1902   1.930       .  S
C1896      C1897   1.409       .  A
C1897      C1898   1.404       .  A
C1897     Br1904   1.933       .  S
C1898      C1899   1.414       .  A
C1898     Br1903   1.934       .  S
C1899      C1900   1.408       .  A
C1900     Br1901   1.928       .  S
C1905      C1906   1.409       .  A
C1905      C1910   1.406       .  A
C1905     Br1912   1.931       .  S
C1906      C1907   1.411       .  A
C1907      C1908   1.412       .  A
C1907     Br1914   1.930       .  S
C1908      C1909   1.415       .  A
C1908     Br1913   1.925       .  S
C1909      C1910   1.411       .  A
C1910     Br1911   1.922       .  S
C1915      C1916   1.401       .  A
C1915      C1920   1.405       .  A
C1915     Br1922   1.935       .  S
C1916      C1917   1.404       .  A
C1917      C1918   1.409       .  A
C1917     Br1924   1.933       .  S
C1918      C1919   1.422       .  A
C1918     Br1923   1.927       .  S
C1919      C1920   1.430       .  A
C1920     Br1921   1.940       .  S
C1925      C1926   1.416       .  A
C1925      C1930   1.407       .  A
C1925     Br1932   1.922       .  S
C1926      C1927   1.422       .  A
C1927      C1928   1.410       .  A
C1927     Br1934   1.925       .  S
C1928      C1929   1.405       .  A
C1928     Br1933   1.933       .  S
C1929      C1930   1.407       .  A
C1930     Br1931   1.933       .  S
C1935      C1936   1.412       .  A
C1935      C1940   1.411       .  A
C1935     Br1942   1.930       .  S
C1936      C1937   1.407       .  A
C1937      C1938   1.397       .  A
C1937     Br1944   1.935       .  S
C1938      C1939   1.412       .  A
C1938     Br1943   1.932       .  S
C1939      C1940   1.411       .  A
C1940     Br1941   1.931       .  S
In1945     O1947   2.244       .  S
In1945     O1948   2.247       .  S
In1945     O1956   2.263       .  S
In1945     O1950   2.210       .  S
In1945     O1952   2.256       .  S
In1945     O1953   2.248       .  S
In1945     O1954   2.249       .  S
In1945     O1957   2.250       .  S
C1946      O1952   1.259       .  A
C1946      O1954   1.260       .  A
C1946      C2037   1.466       .  S
O1947      C1955   1.259       .  A
O1948      C1955   1.260       .  A
C1949      O1956   1.260       .  A
C1949      O1950   1.257       .  A
C1949      C2260   1.472       .  S
C1951      O1953   1.259       .  A
C1951      O1957   1.259       .  A
C1951      C1994   1.463       .  S
C1955      C1977   1.461       .  S
In1958     O1960   2.250       .  S
In1958     O1961   2.249       .  S
In1958     O1969   2.247       .  S
In1958     O1963   2.253       .  S
In1958     O1965   2.278       .  S
In1958     O1966   2.257       .  S
In1958     O1967   2.241       .  S
In1958     O1970   2.253       .  S
C1959      O1965   1.262       .  A
C1959      O1967   1.259       .  A
C1959      C1985   1.472       .  S
O1960      C1968   1.262       .  A
O1961      C1968   1.261       .  A
C1962      O1969   1.258       .  A
C1962      O1963   1.260       .  A
C1962      C2253   1.476       .  S
C1964      O1966   1.259       .  A
C1964      O1970   1.259       .  A
C1964      C2046   1.467       .  S
C1968      C2055   1.466       .  S
In1971     O1973   2.233       .  S
In1971     O1974   2.248       .  S
In1971     O1982   2.250       .  S
In1971     O1976   2.230       .  S
In1971     O1978   2.240       .  S
In1971     O1979   2.239       .  S
In1971     O1980   2.236       .  S
In1971     O1983   2.241       .  S
C1972      O1978   1.260       .  A
C1972      O1980   1.258       .  A
C1972      C2089   1.455       .  S
O1973      C1981   1.256       .  A
O1974      C1981   1.259       .  A
C1975      O1982   1.261       .  A
C1975      O1976   1.256       .  A
C1975      C2240   1.468       .  S
C1981      C2016   1.456       .  S
In1984     O1986   2.248       .  S
In1984     O1987   2.245       .  S
In1984     O1995   2.251       .  S
In1984     O1989   2.258       .  S
In1984     O1991   2.277       .  S
In1984     O1992   2.248       .  S
In1984     O1993   2.235       .  S
In1984     O1996   2.247       .  S
C1985      O1991   1.265       .  A
C1985      O1993   1.259       .  A
O1986      C1994   1.260       .  A
O1987      C1994   1.260       .  A
C1988      O1995   1.258       .  A
C1988      O1989   1.261       .  A
C1988      C2230   1.481       .  S
C1990      O1992   1.261       .  A
C1990      O1996   1.261       .  A
C1990      C2033   1.465       .  S
In1997     O1999   2.243       .  S
In1997     O2000   2.258       .  S
In1997     O2008   2.264       .  S
In1997     O2002   2.233       .  S
In1997     O2004   2.255       .  S
In1997     O2005   2.239       .  S
In1997     O2006   2.241       .  S
In1997     O2009   2.243       .  S
C1998      O2004   1.261       .  A
C1998      O2006   1.259       .  A
C1998      C2063   1.463       .  S
C2001      O2008   1.261       .  A
C2001      O2002   1.258       .  A
C2001      C2220   1.480       .  S
C2003      O2005   1.260       .  A
C2003      O2009   1.259       .  A
C2003      C2020   1.459       .  S
C2007      C2029   1.466   1_455  S
In2010     O2012   2.244       .  S
In2010     O2013   2.237       .  S
In2010     O2021   2.246       .  S
In2010     O2015   2.254       .  S
In2010     O2017   2.275       .  S
In2010     O2019   2.233       .  S
C2011      O2017   1.264       .  A
C2011      O2019   1.258       .  A
C2011      C2076   1.469       .  S
O2012      C2020   1.260       .  A
O2013      C2020   1.259       .  A
C2014      O2021   1.258       .  A
C2014      O2015   1.262       .  A
C2014      C2210   1.476       .  S
C2016      O2018   1.261   1_565  A
C2016      O2022   1.261   1_565  A
In2023     O2034   2.256       .  S
In2023     O2028   2.218       .  S
In2023     O2030   2.237       .  S
In2023     O2031   2.264       .  S
In2023     O2032   2.241       .  S
In2023     O2035   2.245       .  S
C2024      O2030   1.258       .  A
C2024      O2032   1.260       .  A
C2024      C2050   1.456       .  S
O2025      C2033   1.259       .  A
O2026      C2033   1.261       .  A
C2027      O2034   1.261       .  A
C2027      O2028   1.255       .  A
C2027      C2200   1.470       .  S
C2029      O2031   1.260       .  A
C2029      O2035   1.257       .  A
In2036     O2038   2.243       .  S
In2036     O2039   2.251       .  S
In2036     O2047   2.267       .  S
In2036     O2041   2.238       .  S
In2036     O2043   2.260       .  S
In2036     O2044   2.258       .  S
In2036     O2045   2.241       .  S
In2036     O2048   2.230       .  S
C2037      O2043   1.263       .  A
C2037      O2045   1.258       .  A
O2038      C2046   1.261       .  A
O2039      C2046   1.262       .  A
C2040      O2047   1.260       .  A
C2040      O2041   1.259       .  A
C2040      C2193   1.491       .  S
C2042      O2044   1.262       .  A
C2042      O2048   1.258       .  A
C2042      C2098   1.461       .  S
In2049     O2051   2.247       .  S
In2049     O2052   2.259       .  S
In2049     O2060   2.256       .  S
In2049     O2054   2.238       .  S
In2049     O2056   2.244       .  S
In2049     O2058   2.234       .  S
C2050      O2056   1.261       .  A
C2050      O2058   1.258       .  A
O2051      C2059   1.259       .  A
O2052      C2059   1.261       .  A
C2053      O2060   1.262       .  A
C2053      O2054   1.257       .  A
C2053      C2180   1.477       .  S
C2055      O2057   1.261       .  A
C2055      O2061   1.260       .  A
C2059      C2068   1.468   1_655  S
In2062     O2064   2.246       .  S
In2062     O2065   2.253       .  S
In2062     O2073   2.273       .  S
In2062     O2067   2.222       .  S
In2062     O2069   2.256       .  S
In2062     O2070   2.264       .  S
In2062     O2071   2.243       .  S
In2062     O2074   2.246       .  S
C2063      O2069   1.260       .  A
C2063      O2071   1.259       .  A
O2064      C2072   1.260       .  A
O2065      C2072   1.262       .  A
C2066      O2073   1.261       .  A
C2066      O2067   1.257       .  A
C2066      C2173   1.484       .  S
C2072      C2081   1.467       .  S
In2075     O2086   2.260       .  S
In2075     O2080   2.248       .  S
In2075     O2082   2.274       .  S
In2075     O2083   2.253       .  S
In2075     O2084   2.235       .  S
In2075     O2087   2.252       .  S
C2076      O2082   1.263       .  A
C2076      O2084   1.259       .  A
O2077      C2085   1.260       .  A
O2078      C2085   1.260       .  A
C2079      O2086   1.259       .  A
C2079      O2080   1.260       .  A
C2079      C2163   1.476       .  S
C2081      O2083   1.259       .  A
C2081      O2087   1.260       .  A
C2085      C2094   1.461       .  S
In2088     O2090   2.234       .  S
In2088     O2091   2.257       .  S
In2088     O2099   2.241       .  S
In2088     O2093   2.234       .  S
In2088     O2095   2.238       .  S
In2088     O2096   2.242       .  S
In2088     O2097   2.236       .  S
In2088     O2100   2.243       .  S
C2089      O2095   1.259       .  A
C2089      O2097   1.259       .  A
C2092      O2099   1.260       .  A
C2092      O2093   1.256       .  A
C2092      C2153   1.468       .  S
C2094      O2096   1.260       .  A
C2094      O2100   1.259       .  A
C2101      C2102   1.536       .  S
C2101      C2107   1.516       .  S
C2101      C2105   1.524       .  S
C2101      C2203   1.541       .  S
C2102      H2109   1.081       .  S
C2102      C2103   1.376       .  D
C2103      C2104   1.551       .  S
C2103      C2213   1.503       .  S
C2104      C2108   1.556       .  S
C2104      C2106   1.550       .  S
C2104      H2110   1.105       .  S
C2105      H2111   1.084       .  S
C2105      C2106   1.374       .  D
C2106      C2442   1.507   1_554  S
C2107      H2112   1.087       .  S
C2107      C2108   1.353       .  D
C2108      C2263   1.478       .  S
C2113      C2114   1.525       .  S
C2113      C2119   1.549       .  S
C2113      C2117   1.508       .  S
C2113      C2183   1.545       .  S
C2114      H2121   1.086       .  S
C2114      C2115   1.363       .  D
C2115      C2116   1.558       .  S
C2115      C2190   1.490       .  S
C2116      C2120   1.549       .  S
C2116      C2118   1.559       .  S
C2116      H2122   1.104       .  S
C2117      H2123   1.086       .  S
C2117      C2118   1.363       .  D
C2118      C2430   1.507       .  S
C2119      H2124   1.087       .  S
C2119      C2120   1.381       .  D
C2120      C2160   1.515       .  S
C2125      C2126   1.543       .  S
C2125      C2131   1.529       .  S
C2125      C2129   1.510       .  S
C2125      C2243   1.543       .  S
C2126      H2133   1.081       .  S
C2126      C2127   1.380       .  D
C2127      C2128   1.549       .  S
C2127      C2233   1.503       .  S
C2128      C2132   1.558       .  S
C2128      C2130   1.552       .  S
C2128      H2134   1.105       .  S
C2129      H2135   1.085       .  S
C2129      C2130   1.367       .  D
C2130      C2466   1.508   1_554  S
C2131      H2136   1.086       .  S
C2131      C2132   1.359       .  D
C2132      C2223   1.486       .  S
C2137      C2138   1.521       .  S
C2137      C2143   1.545       .  S
C2137      C2141   1.507       .  S
C2137      C2150   1.539       .  S
C2138      H2145   1.086       .  S
C2138      C2139   1.362       .  D
C2139      C2140   1.559       .  S
C2139      C2170   1.485       .  S
C2140      C2144   1.549       .  S
C2140      C2142   1.556       .  S
C2140      H2146   1.104       .  S
C2141      H2147   1.081       .  S
C2141      C2142   1.365       .  D
C2142      C2454   1.508       .  S
C2143      H2148   1.086       .  S
C2143      C2144   1.378       .  D
C2144      C2250   1.510       .  S
C2149      C2150   1.427       .  A
C2149      C2154   1.407       .  A
C2149     Br2156   1.940       .  S
C2150      C2151   1.425       .  A
C2151      C2152   1.404       .  A
C2151     Br2158   1.930       .  S
C2152      C2153   1.403       .  A
C2152     Br2157   1.936       .  S
C2153      C2154   1.405       .  A
C2154     Br2155   1.934       .  S
C2159      C2160   1.417       .  A
C2159      C2164   1.409       .  A
C2159     Br2166   1.923       .  S
C2160      C2161   1.426       .  A
C2161      C2162   1.412       .  A
C2161     Br2168   1.925       .  S
C2162      C2163   1.403       .  A
C2162     Br2167   1.935       .  S
C2163      C2164   1.405       .  A
C2164     Br2165   1.929       .  S
C2169      C2170   1.414       .  A
C2169      C2174   1.402       .  A
C2169     Br2176   1.937       .  S
C2170      C2171   1.404       .  A
C2171      C2172   1.410       .  A
C2171     Br2178   1.917       .  S
C2172      C2173   1.415       .  A
C2172     Br2177   1.929       .  S
C2173      C2174   1.413       .  A
C2174     Br2175   1.935       .  S
C2179      C2180   1.405       .  A
C2179      C2184   1.408       .  A
C2179     Br2186   1.934       .  S
C2180      C2181   1.406       .  A
C2181      C2182   1.409       .  A
C2181     Br2188   1.935       .  S
C2182      C2183   1.427       .  A
C2182     Br2187   1.939       .  S
C2183      C2184   1.424       .  A
C2184     Br2185   1.929       .  S
C2189      C2190   1.414       .  A
C2189      C2194   1.406       .  A
C2189     Br2196   1.936       .  S
C2190      C2191   1.403       .  A
C2191      C2192   1.411       .  A
C2191     Br2198   1.919       .  S
C2192      C2193   1.419       .  A
C2192     Br2197   1.930       .  S
C2193      C2194   1.416       .  A
C2194     Br2195   1.935       .  S
C2199      C2200   1.402       .  A
C2199      C2204   1.407       .  A
C2199     Br2206   1.936       .  S
C2200      C2201   1.406       .  A
C2201      C2202   1.406       .  A
C2201     Br2208   1.936       .  S
C2202      C2203   1.425       .  A
C2202     Br2207   1.936       .  S
C2203      C2204   1.431       .  A
C2204     Br2205   1.942       .  S
C2209      C2210   1.408       .  A
C2209      C2214   1.413       .  A
C2209     Br2216   1.931       .  S
C2210      C2211   1.407       .  A
C2211      C2212   1.404       .  A
C2211     Br2218   1.931       .  S
C2212      C2213   1.414       .  A
C2212     Br2217   1.932       .  S
C2213      C2214   1.417       .  A
C2214     Br2215   1.926       .  S
C2219      C2220   1.413       .  A
C2219      C2224   1.411       .  A
C2219     Br2226   1.930       .  S
C2220      C2221   1.409       .  A
C2221      C2222   1.404       .  A
C2221     Br2228   1.933       .  S
C2222      C2223   1.414       .  A
C2222     Br2227   1.934       .  S
C2223      C2224   1.408       .  A
C2224     Br2225   1.928       .  S
C2229      C2230   1.409       .  A
C2229      C2234   1.406       .  A
C2229     Br2236   1.931       .  S
C2230      C2231   1.411       .  A
C2231      C2232   1.412       .  A
C2231     Br2238   1.930       .  S
C2232      C2233   1.415       .  A
C2232     Br2237   1.925       .  S
C2233      C2234   1.411       .  A
C2234     Br2235   1.922       .  S
C2239      C2240   1.401       .  A
C2239      C2244   1.405       .  A
C2239     Br2246   1.935       .  S
C2240      C2241   1.404       .  A
C2241      C2242   1.409       .  A
C2241     Br2248   1.933       .  S
C2242      C2243   1.422       .  A
C2242     Br2247   1.927       .  S
C2243      C2244   1.430       .  A
C2244     Br2245   1.940       .  S
C2249      C2250   1.416       .  A
C2249      C2254   1.407       .  A
C2249     Br2256   1.922       .  S
C2250      C2251   1.422       .  A
C2251      C2252   1.410       .  A
C2251     Br2258   1.925       .  S
C2252      C2253   1.405       .  A
C2252     Br2257   1.933       .  S
C2253      C2254   1.407       .  A
C2254     Br2255   1.933       .  S
C2259      C2260   1.412       .  A
C2259      C2264   1.411       .  A
C2259     Br2266   1.930       .  S
C2260      C2261   1.407       .  A
C2261      C2262   1.397       .  A
C2261     Br2268   1.935       .  S
C2262      C2263   1.412       .  A
C2262     Br2267   1.932       .  S
C2263      C2264   1.411       .  A
C2264     Br2265   1.931       .  S
In2269     O2271   2.244       .  S
In2269     O2272   2.247       .  S
In2269     O2280   2.263       .  S
In2269     O2274   2.210       .  S
In2269     O2276   2.256       .  S
In2269     O2277   2.248       .  S
In2269     O2278   2.249       .  S
In2269     O2281   2.250       .  S
C2270      O2276   1.259       .  A
C2270      O2278   1.260       .  A
C2270      C2361   1.466       .  S
O2271      C2279   1.259       .  A
O2272      C2279   1.260       .  A
C2273      O2280   1.260       .  A
C2273      O2274   1.257       .  A
C2273      C2584   1.472       .  S
C2275      O2277   1.259       .  A
C2275      O2281   1.259       .  A
C2275      C2318   1.463       .  S
C2279      C2301   1.461       .  S
In2282     O2284   2.250       .  S
In2282     O2285   2.249       .  S
In2282     O2293   2.247       .  S
In2282     O2287   2.253       .  S
In2282     O2289   2.278       .  S
In2282     O2290   2.257       .  S
In2282     O2291   2.241       .  S
In2282     O2294   2.253       .  S
C2283      O2289   1.262       .  A
C2283      O2291   1.259       .  A
C2283      C2309   1.472       .  S
O2284      C2292   1.262       .  A
O2285      C2292   1.261       .  A
C2286      O2293   1.258       .  A
C2286      O2287   1.260       .  A
C2286      C2577   1.476       .  S
C2288      O2290   1.259       .  A
C2288      O2294   1.259       .  A
C2288      C2370   1.467       .  S
C2292      C2379   1.466       .  S
In2295     O2297   2.233       .  S
In2295     O2298   2.248       .  S
In2295     O2306   2.250       .  S
In2295     O2300   2.230       .  S
In2295     O2302   2.240       .  S
In2295     O2303   2.239       .  S
In2295     O2304   2.236       .  S
In2295     O2307   2.241       .  S
C2296      O2302   1.260       .  A
C2296      O2304   1.258       .  A
C2296      C2413   1.455       .  S
O2297      C2305   1.256       .  A
O2298      C2305   1.259       .  A
C2299      O2306   1.261       .  A
C2299      O2300   1.256       .  A
C2299      C2564   1.468       .  S
C2305      C2340   1.456       .  S
In2308     O2310   2.248       .  S
In2308     O2311   2.245       .  S
In2308     O2319   2.251       .  S
In2308     O2313   2.258       .  S
In2308     O2315   2.277       .  S
In2308     O2316   2.248       .  S
In2308     O2317   2.235       .  S
In2308     O2320   2.247       .  S
C2309      O2315   1.265       .  A
C2309      O2317   1.259       .  A
O2310      C2318   1.260       .  A
O2311      C2318   1.260       .  A
C2312      O2319   1.258       .  A
C2312      O2313   1.261       .  A
C2312      C2554   1.481       .  S
C2314      O2316   1.261       .  A
C2314      O2320   1.261       .  A
C2314      C2357   1.465       .  S
In2321     O2323   2.243       .  S
In2321     O2324   2.258       .  S
In2321     O2332   2.264       .  S
In2321     O2326   2.233       .  S
In2321     O2328   2.255       .  S
In2321     O2329   2.239       .  S
In2321     O2330   2.241       .  S
In2321     O2333   2.243       .  S
C2322      O2328   1.261       .  A
C2322      O2330   1.259       .  A
C2322      C2387   1.463       .  S
C2325      O2332   1.261       .  A
C2325      O2326   1.258       .  A
C2325      C2544   1.480       .  S
C2327      O2329   1.260       .  A
C2327      O2333   1.259       .  A
C2327      C2344   1.459       .  S
C2331      C2353   1.466   1_455  S
In2334     O2336   2.244       .  S
In2334     O2337   2.237       .  S
In2334     O2345   2.246       .  S
In2334     O2339   2.254       .  S
In2334     O2341   2.275       .  S
In2334     O2343   2.233       .  S
C2335      O2341   1.264       .  A
C2335      O2343   1.258       .  A
C2335      C2400   1.469       .  S
O2336      C2344   1.260       .  A
O2337      C2344   1.259       .  A
C2338      O2345   1.258       .  A
C2338      O2339   1.262       .  A
C2338      C2534   1.476       .  S
C2340      O2342   1.261   1_565  A
C2340      O2346   1.261   1_565  A
In2347     O2358   2.256       .  S
In2347     O2352   2.218       .  S
In2347     O2354   2.237       .  S
In2347     O2355   2.264       .  S
In2347     O2356   2.241       .  S
In2347     O2359   2.245       .  S
C2348      O2354   1.258       .  A
C2348      O2356   1.260       .  A
C2348      C2374   1.456       .  S
O2349      C2357   1.259       .  A
O2350      C2357   1.261       .  A
C2351      O2358   1.261       .  A
C2351      O2352   1.255       .  A
C2351      C2524   1.470       .  S
C2353      O2355   1.260       .  A
C2353      O2359   1.257       .  A
In2360     O2362   2.243       .  S
In2360     O2363   2.251       .  S
In2360     O2371   2.267       .  S
In2360     O2365   2.238       .  S
In2360     O2367   2.260       .  S
In2360     O2368   2.258       .  S
In2360     O2369   2.241       .  S
In2360     O2372   2.230       .  S
C2361      O2367   1.263       .  A
C2361      O2369   1.258       .  A
O2362      C2370   1.261       .  A
O2363      C2370   1.262       .  A
C2364      O2371   1.260       .  A
C2364      O2365   1.259       .  A
C2364      C2517   1.491       .  S
C2366      O2368   1.262       .  A
C2366      O2372   1.258       .  A
C2366      C2422   1.461       .  S
In2373     O2375   2.247       .  S
In2373     O2376   2.259       .  S
In2373     O2384   2.256       .  S
In2373     O2378   2.238       .  S
In2373     O2380   2.244       .  S
In2373     O2382   2.234       .  S
C2374      O2380   1.261       .  A
C2374      O2382   1.258       .  A
O2375      C2383   1.259       .  A
O2376      C2383   1.261       .  A
C2377      O2384   1.262       .  A
C2377      O2378   1.257       .  A
C2377      C2504   1.477       .  S
C2379      O2381   1.261       .  A
C2379      O2385   1.260       .  A
C2383      C2392   1.468   1_655  S
In2386     O2388   2.246       .  S
In2386     O2389   2.253       .  S
In2386     O2397   2.273       .  S
In2386     O2391   2.222       .  S
In2386     O2393   2.256       .  S
In2386     O2394   2.264       .  S
In2386     O2395   2.243       .  S
In2386     O2398   2.246       .  S
C2387      O2393   1.260       .  A
C2387      O2395   1.259       .  A
O2388      C2396   1.260       .  A
O2389      C2396   1.262       .  A
C2390      O2397   1.261       .  A
C2390      O2391   1.257       .  A
C2390      C2497   1.484       .  S
C2396      C2405   1.467       .  S
In2399     O2410   2.260       .  S
In2399     O2404   2.248       .  S
In2399     O2406   2.274       .  S
In2399     O2407   2.253       .  S
In2399     O2408   2.235       .  S
In2399     O2411   2.252       .  S
C2400      O2406   1.263       .  A
C2400      O2408   1.259       .  A
O2401      C2409   1.260       .  A
O2402      C2409   1.260       .  A
C2403      O2410   1.259       .  A
C2403      O2404   1.260       .  A
C2403      C2487   1.476       .  S
C2405      O2407   1.259       .  A
C2405      O2411   1.260       .  A
C2409      C2418   1.461       .  S
In2412     O2414   2.234       .  S
In2412     O2415   2.257       .  S
In2412     O2423   2.241       .  S
In2412     O2417   2.234       .  S
In2412     O2419   2.238       .  S
In2412     O2420   2.242       .  S
In2412     O2421   2.236       .  S
In2412     O2424   2.243       .  S
C2413      O2419   1.259       .  A
C2413      O2421   1.259       .  A
C2416      O2423   1.260       .  A
C2416      O2417   1.256       .  A
C2416      C2477   1.468       .  S
C2418      O2420   1.260       .  A
C2418      O2424   1.259       .  A
C2425      C2426   1.536       .  S
C2425      C2431   1.516       .  S
C2425      C2429   1.524       .  S
C2425      C2527   1.541       .  S
C2426      H2433   1.081       .  S
C2426      C2427   1.376       .  D
C2427      C2428   1.551       .  S
C2427      C2537   1.503       .  S
C2428      C2432   1.556       .  S
C2428      C2430   1.550       .  S
C2428      H2434   1.105       .  S
C2429      H2435   1.084       .  S
C2429      C2430   1.374       .  D
C2431      H2436   1.087       .  S
C2431      C2432   1.353       .  D
C2432      C2587   1.478       .  S
C2437      C2438   1.525       .  S
C2437      C2443   1.549       .  S
C2437      C2441   1.508       .  S
C2437      C2507   1.545       .  S
C2438      H2445   1.086       .  S
C2438      C2439   1.363       .  D
C2439      C2440   1.558       .  S
C2439      C2514   1.490       .  S
C2440      C2444   1.549       .  S
C2440      C2442   1.559       .  S
C2440      H2446   1.104       .  S
C2441      H2447   1.086       .  S
C2441      C2442   1.363       .  D
C2443      H2448   1.087       .  S
C2443      C2444   1.381       .  D
C2444      C2484   1.515       .  S
C2449      C2450   1.543       .  S
C2449      C2455   1.529       .  S
C2449      C2453   1.510       .  S
C2449      C2567   1.543       .  S
C2450      H2457   1.081       .  S
C2450      C2451   1.380       .  D
C2451      C2452   1.549       .  S
C2451      C2557   1.503       .  S
C2452      C2456   1.558       .  S
C2452      C2454   1.552       .  S
C2452      H2458   1.105       .  S
C2453      H2459   1.085       .  S
C2453      C2454   1.367       .  D
C2455      H2460   1.086       .  S
C2455      C2456   1.359       .  D
C2456      C2547   1.486       .  S
C2461      C2462   1.521       .  S
C2461      C2467   1.545       .  S
C2461      C2465   1.507       .  S
C2461      C2474   1.539       .  S
C2462      H2469   1.086       .  S
C2462      C2463   1.362       .  D
C2463      C2464   1.559       .  S
C2463      C2494   1.485       .  S
C2464      C2468   1.549       .  S
C2464      C2466   1.556       .  S
C2464      H2470   1.104       .  S
C2465      H2471   1.081       .  S
C2465      C2466   1.365       .  D
C2467      H2472   1.086       .  S
C2467      C2468   1.378       .  D
C2468      C2574   1.510       .  S
C2473      C2474   1.427       .  A
C2473      C2478   1.407       .  A
C2473     Br2480   1.940       .  S
C2474      C2475   1.425       .  A
C2475      C2476   1.404       .  A
C2475     Br2482   1.930       .  S
C2476      C2477   1.403       .  A
C2476     Br2481   1.936       .  S
C2477      C2478   1.405       .  A
C2478     Br2479   1.934       .  S
C2483      C2484   1.417       .  A
C2483      C2488   1.409       .  A
C2483     Br2490   1.923       .  S
C2484      C2485   1.426       .  A
C2485      C2486   1.412       .  A
C2485     Br2492   1.925       .  S
C2486      C2487   1.403       .  A
C2486     Br2491   1.935       .  S
C2487      C2488   1.405       .  A
C2488     Br2489   1.929       .  S
C2493      C2494   1.414       .  A
C2493      C2498   1.402       .  A
C2493     Br2500   1.937       .  S
C2494      C2495   1.404       .  A
C2495      C2496   1.410       .  A
C2495     Br2502   1.917       .  S
C2496      C2497   1.415       .  A
C2496     Br2501   1.929       .  S
C2497      C2498   1.413       .  A
C2498     Br2499   1.935       .  S
C2503      C2504   1.405       .  A
C2503      C2508   1.408       .  A
C2503     Br2510   1.934       .  S
C2504      C2505   1.406       .  A
C2505      C2506   1.409       .  A
C2505     Br2512   1.935       .  S
C2506      C2507   1.427       .  A
C2506     Br2511   1.939       .  S
C2507      C2508   1.424       .  A
C2508     Br2509   1.929       .  S
C2513      C2514   1.414       .  A
C2513      C2518   1.406       .  A
C2513     Br2520   1.936       .  S
C2514      C2515   1.403       .  A
C2515      C2516   1.411       .  A
C2515     Br2522   1.919       .  S
C2516      C2517   1.419       .  A
C2516     Br2521   1.930       .  S
C2517      C2518   1.416       .  A
C2518     Br2519   1.935       .  S
C2523      C2524   1.402       .  A
C2523      C2528   1.407       .  A
C2523     Br2530   1.936       .  S
C2524      C2525   1.406       .  A
C2525      C2526   1.406       .  A
C2525     Br2532   1.936       .  S
C2526      C2527   1.425       .  A
C2526     Br2531   1.936       .  S
C2527      C2528   1.431       .  A
C2528     Br2529   1.942       .  S
C2533      C2534   1.408       .  A
C2533      C2538   1.413       .  A
C2533     Br2540   1.931       .  S
C2534      C2535   1.407       .  A
C2535      C2536   1.404       .  A
C2535     Br2542   1.931       .  S
C2536      C2537   1.414       .  A
C2536     Br2541   1.932       .  S
C2537      C2538   1.417       .  A
C2538     Br2539   1.926       .  S
C2543      C2544   1.413       .  A
C2543      C2548   1.411       .  A
C2543     Br2550   1.930       .  S
C2544      C2545   1.409       .  A
C2545      C2546   1.404       .  A
C2545     Br2552   1.933       .  S
C2546      C2547   1.414       .  A
C2546     Br2551   1.934       .  S
C2547      C2548   1.408       .  A
C2548     Br2549   1.928       .  S
C2553      C2554   1.409       .  A
C2553      C2558   1.406       .  A
C2553     Br2560   1.931       .  S
C2554      C2555   1.411       .  A
C2555      C2556   1.412       .  A
C2555     Br2562   1.930       .  S
C2556      C2557   1.415       .  A
C2556     Br2561   1.925       .  S
C2557      C2558   1.411       .  A
C2558     Br2559   1.922       .  S
C2563      C2564   1.401       .  A
C2563      C2568   1.405       .  A
C2563     Br2570   1.935       .  S
C2564      C2565   1.404       .  A
C2565      C2566   1.409       .  A
C2565     Br2572   1.933       .  S
C2566      C2567   1.422       .  A
C2566     Br2571   1.927       .  S
C2567      C2568   1.430       .  A
C2568     Br2569   1.940       .  S
C2573      C2574   1.416       .  A
C2573      C2578   1.407       .  A
C2573     Br2580   1.922       .  S
C2574      C2575   1.422       .  A
C2575      C2576   1.410       .  A
C2575     Br2582   1.925       .  S
C2576      C2577   1.405       .  A
C2576     Br2581   1.933       .  S
C2577      C2578   1.407       .  A
C2578     Br2579   1.933       .  S
C2583      C2584   1.412       .  A
C2583      C2588   1.411       .  A
C2583     Br2590   1.930       .  S
C2584      C2585   1.407       .  A
C2585      C2586   1.397       .  A
C2585     Br2592   1.935       .  S
C2586      C2587   1.412       .  A
C2586     Br2591   1.932       .  S
C2587      C2588   1.411       .  A
C2588     Br2589   1.931       .  S
