geometry optimzed in LAMMPS
_audit_creation_date              2020-11-30 
_audit_creation_method            'lammps2cif' 
_symmetry_space_group_name_H-M    'P1' 
_symmetry_Int_Tables_number       1 
_symmetry_cell_setting            triclinic 
loop_ 
_symmetry_equiv_pos_as_xyz 
  x,y,z 
_cell_length_a                    29.86206236 
_cell_length_b                    33.254447937155 
_cell_length_c                    27.480582221926348 
_cell_angle_alpha                 89.4745876287623 
_cell_angle_beta                  90.7218441590261 
_cell_angle_gamma                 90.19690076195572 
loop_ 
_atom_site_label 
_atom_site_type_symbol 
_atom_site_fract_x 
_atom_site_fract_y 
_atom_site_fract_z 
_atom_site_charge 
C1          C  0.32597928  0.18595003  0.50321582     0.86000
C2          C  0.33468316  0.16112386  0.45719701    -0.54200
C3          C  0.37502672  0.14193016  0.45767302     0.09000
C4          C  0.40294563  0.14882482  0.50405844     0.19900
C5          C  0.33175696  0.15439081  0.54496787    -0.54900
C6          C  0.37251211  0.13573256  0.54584252     0.09100
C7          C  0.36699426  0.21377219  0.50894957    -0.54500
C8          C  0.40704070  0.19437980  0.50878476     0.09600
H9          H  0.31166551  0.16024846  0.42635415     0.14200
H10         H  0.43584743  0.13342006  0.50349186    -0.00100
H11         H  0.30613014  0.14526626  0.57003357     0.14500
H12         H  0.36457632  0.24629102  0.51111424     0.14200
C13         C  0.15834357  0.28282591  0.49603392     0.86000
C14         C  0.15115686  0.31339020  0.45339211    -0.54200
C15         C  0.11183776  0.33418757  0.45560661     0.09000
C16         C  0.08291941  0.32247050  0.49924399     0.19900
C17         C  0.15300200  0.30857403  0.54197167    -0.54900
C18         C  0.11346698  0.32883259  0.54383844     0.09100
C19         C  0.11619871  0.25616975  0.49352133    -0.54500
C20         C  0.07695209  0.27676490  0.49565592     0.09600
H21         H  0.17371938  0.31888267  0.42361141     0.14200
H22         H  0.05076968  0.33903981  0.50113180    -0.00100
H23         H  0.17764195  0.30940403  0.57136174     0.14500
H24         H  0.11735545  0.22357258  0.49154520     0.14200
C25         C  0.15503450  0.19350762  0.99575185     0.86000
C26         C  0.14515680  0.16340329  0.03790896    -0.54200
C27         C  0.10533278  0.14355224  0.03275081     0.09000
C28         C  0.07879583  0.15519730  0.98676432     0.19900
C29         C  0.15108188  0.16735099  0.94969749    -0.54900
C30         C  0.11081505  0.14822208  0.94459357     0.09100
C31         C  0.11355333  0.22083907  0.99524071    -0.54500
C32         C  0.07388619  0.20102224  0.98950286     0.09600
H33         H  0.16565801  0.15835781  0.07006902     0.14200
H34         H  0.04654752  0.13868956  0.98295527    -0.00100
H35         H  0.17739374  0.16506328  0.92294220     0.14500
H36         H  0.11550961  0.25319448  0.00010778     0.14200
C37         C  0.32209639  0.29137878  0.00493892     0.86000
C38         C  0.33080456  0.31506613  0.05218183    -0.54200
C39         C  0.37250374  0.33184433  0.05527654     0.09000
C40         C  0.40099250  0.32528965  0.00997160     0.19900
C41         C  0.33100545  0.32303132  0.96408876    -0.54900
C42         C  0.37241408  0.34069476  0.96691481     0.09100
C43         C  0.36138650  0.26214229  0.00007567    -0.54500
C44         C  0.40247004  0.27953489  0.00371652     0.09600
H45         H  0.30643207  0.31757632  0.08097537     0.14200
H46         H  0.43462718  0.33955949  0.01221447    -0.00100
H47         H  0.30829107  0.33102016  0.93467747     0.14500
H48         H  0.35656045  0.23055220  0.99218037     0.14200
In49       In  0.49920429  0.48189246  0.75015280     1.36900
C50         C  0.45451900  0.02677464  0.68516754     0.77100
O51         O  0.50445556  0.04116681  0.78704362    -0.61300
O52         O  0.06132853  0.00338043  0.78943234    -0.52200
C53         C  0.45655095  0.43749487  0.81688516     0.69800
O54         O  0.44012863  0.44529060  0.77543859    -0.47100
C55         C  0.03980693  0.42786662  0.69473975     0.74500
O56         O  0.43834269  0.01704596  0.72579651    -0.58900
O57         O  0.05968982  0.45871234  0.71070273    -0.49000
O58         O  0.49344853  0.01378834  0.67825562    -0.55400
C59         C  0.04415029  0.03624156  0.80209775     0.84700
O60         O  0.99469432  0.45268286  0.82435721    -0.57300
O61         O  0.50002472  0.42454903  0.70874605    -0.60600
In62       In  0.49467376  0.49250696  0.24955591     1.36900
C63         C  0.44943443  0.44289276  0.19240628     0.77100
O64         O  0.49195729  0.04592545  0.19941055    -0.61300
O65         O  0.05036431  0.01018358  0.19874332    -0.52200
C66         C  0.45606698  0.04157696  0.31249213     0.69800
O67         O  0.43398438  0.01650102  0.28755300    -0.47100
C68         C  0.03810611  0.44327067  0.31120069     0.74500
O69         O  0.42995459  0.46705012  0.22024906    -0.58900
O70         O  0.05456871  0.47629800  0.29714143    -0.49000
O71         O  0.49162297  0.44509876  0.19360361    -0.55400
C72         C  0.03011485  0.04055217  0.18176859     0.84700
O73         O  0.99764664  0.04080278  0.30539312    -0.57300
O74         O  0.49982544  0.43569691  0.29400460    -0.60600
C75         C  0.36345040  0.38914808  0.11186848    -0.20800
C76         C  0.38881962  0.35604888  0.09704267    -0.07300
C77         C  0.43188196  0.34996420  0.11771893     0.13500
C78         C  0.45017368  0.37897331  0.14848135    -0.20800
C79         C  0.42595640  0.41314298  0.16151794    -0.07300
C80         C  0.38137778  0.41774856  0.14421010     0.13500
C81         C  0.35330147  0.45340079  0.15768598    -0.24200
H82         H  0.33036759  0.39372277  0.09615995     0.14800
H83         H  0.98371584  0.37439690  0.16305643     0.14900
C84         C  0.45919921  0.31277954  0.10949321    -0.24100
H85         H  0.31990110  0.45269543  0.13945126     0.05100
H86         H  0.37040446  0.48166413  0.14658241     0.08300
H87         H  0.34781795  0.45338587  0.19755984     0.08300
H88         H  0.48894372  0.32030137  0.08730030     0.08300
H89         H  0.43947722  0.28905301  0.09156759     0.08300
H90         H  0.97058468  0.30004939  0.14503311     0.05000
C91         C  0.43593449  0.42525662  0.90283004    -0.20800
C92         C  0.43302556  0.41314601  0.85414337    -0.07300
C93         C  0.40790723  0.37835423  0.84232221     0.13500
C94         C  0.38752186  0.35601114  0.87974339    -0.20800
C95         C  0.39047181  0.36810985  0.92856286    -0.07300
C96         C  0.41369823  0.40410793  0.93983297     0.13500
C97         C  0.41378975  0.42237351  0.98976457    -0.24200
H98         H  0.45431153  0.45243763  0.91186880     0.14800
H99         H  0.37002929  0.32835435  0.87094804     0.14900
C100        C  0.40400559  0.36367236  0.79070373    -0.24100
H101        H  0.40270999  0.45417882  0.98704776     0.05100
H102        H  0.44809384  0.42145263  0.00574110     0.08300
H103        H  0.39034656  0.40705116  0.01458109     0.08300
H104        H  0.43788957  0.35851202  0.77584270     0.08300
H105        H  0.38607746  0.38623069  0.76779573     0.08300
H106        H  0.38496628  0.33498436  0.78843547     0.05000
C107        C  0.07584853  0.05069328  0.10759684    -0.20800
C108        C  0.04933863  0.06746940  0.14407780    -0.07300
C109        C  0.04173269  0.10951689  0.14378273     0.13500
C110        C  0.06139956  0.13359956  0.10762463    -0.20800
C111        C  0.08701576  0.11665715  0.07082564    -0.07300
C112        C  0.09406630  0.07479339  0.07042539     0.13500
C113        C  0.12034061  0.05565940  0.03047351    -0.24200
H114        H  0.08139844  0.01851081  0.10749673     0.14800
H115        H  0.05654381  0.16586321  0.10781998     0.14900
C116        C  0.51391615  0.12946028  0.18202904    -0.24100
H117        H  0.12318578  0.02261609  0.03574003     0.05100
H118        H  0.15463109  0.06862979  0.02955283     0.08300
H119        H  0.10324540  0.06135950  0.99501476     0.08300
H120        H  0.52780207  0.12236905  0.21876301     0.08300
H121        H  0.47870481  0.11884887  0.17934675     0.08300
H122        H  0.51358016  0.16268278  0.17751525     0.05000
C123        C  0.04692429  0.10437109  0.83739964    -0.20800
C124        C  0.06704373  0.06644319  0.83342216    -0.07300
C125        C  0.10585006  0.05789876  0.86198857     0.13500
C126        C  0.12118613  0.08634497  0.89602058    -0.20800
C127        C  0.09846806  0.12264476  0.90260585    -0.07300
C128        C  0.06200338  0.13244404  0.87159689     0.13500
C129        C  0.03876547  0.17245162  0.87421513    -0.24200
H130        H  0.01809757  0.11170966  0.81469303     0.14800
H131        H  0.14971418  0.07939483  0.91935722     0.14900
C132        C  0.13031407  0.01851610  0.85851227    -0.24100
H133        H  0.01346839  0.17629592  0.84458311     0.05100
H134        H  0.06371874  0.19706483  0.87071819     0.08300
H135        H  0.02093961  0.17486899  0.90908545     0.08300
H136        H  0.14278631  0.51461681  0.82094551     0.08300
H137        H  0.10773075  0.49349242  0.86843855     0.08300
H138        H  0.15986897  0.51744235  0.88361061     0.05000
C139        C  0.49704847  0.20413346  0.02076168    -0.20800
C140        C  0.02974110  0.22113352  0.99067655    -0.07300
C141        C  0.01939676  0.25629393  0.96333569     0.13500
C142        C  0.47751606  0.27419130  0.96866362    -0.20800
C143        C  0.44498820  0.25733258  0.99899173    -0.07300
C144        C  0.45480836  0.22162679  0.02550307     0.13500
C145        C  0.42234208  0.20241373  0.06050334    -0.24200
H146        H  0.50474863  0.17709340  0.04134879     0.14800
H147        H  0.46978444  0.30117479  0.94781159     0.14900
C148        C  0.05016850  0.27500255  0.92644830    -0.24100
H149        H  0.43824928  0.17770081  0.08194498     0.05100
H150        H  0.39371524  0.18893643  0.04049459     0.08300
H151        H  0.41010623  0.22481479  0.08675610     0.08300
H152        H  0.07977971  0.25650060  0.91932224     0.08300
H153        H  0.06116635  0.30514644  0.93900947     0.08300
H154        H  0.03209451  0.27842346  0.89108879     0.05000
C155        C  0.24628913  0.27297590  0.96679070    -0.20800
C156        C  0.27768121  0.26774335  0.00483195    -0.07300
C157        C  0.26845152  0.23739338  0.04042458     0.13500
C158        C  0.22937552  0.21403302  0.03639646    -0.20800
C159        C  0.19840701  0.21874496  0.99774889    -0.07300
C160        C  0.20794562  0.24883646  0.96199241     0.13500
C161        C  0.17928248  0.25724732  0.91732481    -0.24200
H162        H  0.25138174  0.29530052  0.93882256     0.14800
H163        H  0.22441899  0.19150669  0.06418373     0.14900
C164        C  0.29870568  0.22728372  0.08342537    -0.24100
H165        H  0.20018935  0.25514969  0.88431443     0.05100
H166        H  0.16550791  0.28816840  0.91931976     0.08300
H167        H  0.15118253  0.23632650  0.91189169     0.08300
H168        H  0.32993685  0.24482674  0.08578015     0.08300
H169        H  0.30849664  0.19514080  0.08171852     0.08300
H170        H  0.28024196  0.23212486  0.11770051     0.05000
C171        C  0.05810852  0.34089527  0.60758656    -0.20800
C172        C  0.09876599  0.35211635  0.58644760    -0.07300
C173        C  0.12202079  0.38620197  0.60421109     0.13500
C174        C  0.10277166  0.40909380  0.64113514    -0.20800
C175        C  0.06072049  0.39924451  0.66051476    -0.07300
C176        C  0.03874505  0.36376193  0.64438020     0.13500
C177        C  0.49475390  0.34960287  0.66496146    -0.24200
H178        H  0.04085065  0.31434898  0.59435809     0.14800
H179        H  0.12014307  0.43588701  0.65343558     0.14900
C180        C  0.16587951  0.40078818  0.58383949    -0.24100
H181        H  0.48409447  0.32025857  0.64959245     0.05100
H182        H  0.46796227  0.37161611  0.65606406     0.08300
H183        H  0.99800233  0.34564400  0.70501929     0.08300
H184        H  0.19202752  0.39990076  0.61288543     0.08300
H185        H  0.17772209  0.38288580  0.55287794     0.08300
H186        H  0.16215568  0.43232479  0.57081495     0.05000
C187        C  0.07276149  0.43041151  0.39208921    -0.20800
C188        C  0.06093643  0.41591774  0.34598363    -0.07300
C189        C  0.06905374  0.37522375  0.33479705     0.13500
C190        C  0.08775795  0.34968862  0.37059526    -0.20800
C191        C  0.09703211  0.36357570  0.41771367    -0.07300
C192        C  0.09032749  0.40462332  0.42827335     0.13500
C193        C  0.10277897  0.42159839  0.47712289    -0.24200
H194        H  0.06691805  0.46178470  0.40026439     0.14800
H195        H  0.09391354  0.31842583  0.36225120     0.14900
C196        C  0.05860547  0.35887092  0.28496233    -0.24100
H197        H  0.09714692  0.45455674  0.47849831     0.05100
H198        H  0.13881864  0.41598833  0.48448587     0.08300
H199        H  0.08226947  0.40741454  0.50589970     0.08300
H200        H  0.07727533  0.37631496  0.25711616     0.08300
H201        H  0.02215692  0.36108908  0.27710457     0.08300
H202        H  0.06827693  0.32676932  0.28201077     0.05000
C203        C  0.40525795  0.08472042  0.66606522    -0.20800
C204        C  0.43032063  0.05222456  0.64919239    -0.07300
C205        C  0.43271713  0.04542893  0.59859854     0.13500
C206        C  0.41054846  0.07169789  0.56625359    -0.20800
C207        C  0.38731564  0.10545067  0.58284336    -0.07300
C208        C  0.38436517  0.11191565  0.63365382     0.13500
C209        C  0.36172925  0.14835220  0.65433574    -0.24200
H210        H  0.40360912  0.08981727  0.70490841     0.14800
H211        H  0.41255846  0.06652369  0.52744364     0.14900
C212        C  0.95833216  0.01047774  0.57835404    -0.24100
H213        H  0.36743615  0.15061719  0.69423472     0.05100
H214        H  0.32505180  0.14645038  0.64833365     0.08300
H215        H  0.37499375  0.17624033  0.63728520     0.08300
H216        H  0.94584651  0.98187866  0.59442242     0.08300
H217        H  0.99458995  0.01391939  0.58670114     0.08300
H218        H  0.95452259  0.00858042  0.53817529     0.05000
C219        C  0.39144604  0.05999553  0.36378017    -0.20800
C220        C  0.43481902  0.06914401  0.34754023    -0.07300
C221        C  0.45677825  0.10396929  0.36554026     0.13500
C222        C  0.43523425  0.12782357  0.39984361    -0.20800
C223        C  0.39254583  0.11801340  0.41692145    -0.07300
C224        C  0.37016225  0.08377869  0.39854041     0.13500
C225        C  0.32499394  0.07096484  0.41713336    -0.24200
H226        H  0.37450113  0.03341889  0.35020384     0.14800
H227        H  0.45219614  0.15414998  0.41418572     0.14900
C228        C  0.00270990  0.11665638  0.34895195    -0.24100
H229        H  0.31397317  0.04191474  0.40126660     0.05100
H230        H  0.29938877  0.09373589  0.40716112     0.08300
H231        H  0.32651836  0.06721059  0.45731294     0.08300
H232        H  0.00261454  0.12062272  0.30879926     0.08300
H233        H  0.02784443  0.09375059  0.36011478     0.08300
H234        H  0.01337201  0.14564739  0.36527917     0.05000
C235        C  0.02551516  0.22975901  0.53760577    -0.20800
C236        C  0.03300010  0.25627730  0.49853080    -0.07300
C237        C  0.49895106  0.26240214  0.46315790     0.13500
C238        C  0.45794054  0.24227542  0.46813740    -0.20800
C239        C  0.45044230  0.21578298  0.50716347    -0.07300
C240        C  0.48460579  0.20931478  0.54237085     0.13500
C241        C  0.47772048  0.18209697  0.58579357    -0.24200
H242        H  0.05179928  0.22528906  0.56468995     0.14800
H243        H  0.43181079  0.24651284  0.44081933     0.14900
C244        C  0.50630192  0.28852291  0.41897341    -0.24100
H245        H  0.00701028  0.18264689  0.61109397     0.05100
H246        H  0.47297262  0.15058377  0.57408716     0.08300
H247        H  0.44799464  0.19206216  0.60615610     0.08300
H248        H  0.03570360  0.27739462  0.39889236     0.08300
H249        H  0.51186168  0.32013106  0.42991587     0.08300
H250        H  0.47696100  0.28805924  0.39374337     0.05000
C251        C  0.23406405  0.26143229  0.46161440    -0.20800
C252        C  0.20145186  0.25742047  0.49793205    -0.07300
C253        C  0.21010916  0.22918303  0.53626567     0.13500
C254        C  0.24983207  0.20678251  0.53668604    -0.20800
C255        C  0.28229157  0.21051821  0.50018045    -0.07300
C256        C  0.27397251  0.23919568  0.46224479     0.13500
C257        C  0.30607481  0.24864871  0.42144477    -0.24200
H258        H  0.22962089  0.28236735  0.43187563     0.14800
H259        H  0.25484747  0.18685072  0.56729375     0.14900
C260        C  0.17912484  0.22108711  0.57850780    -0.24100
H261        H  0.28959112  0.24195492  0.38597282     0.05100
H262        H  0.33793446  0.23208107  0.42285066     0.08700
H263        H  0.31476073  0.28114876  0.42218732     0.08300
H264        H  0.16995122  0.18869654  0.57922212     0.08300
H265        H  0.14754557  0.23807621  0.57783603     0.08300
H266        H  0.19681647  0.22839915  0.61313185     0.05000
C267        C  0.32572065  0.68575257  0.50304235     0.86000
C268        C  0.33448808  0.66107293  0.45691635    -0.54200
C269        C  0.37485995  0.64192121  0.45733686     0.09000
C270        C  0.40275613  0.64873894  0.50375960     0.19900
C271        C  0.33152734  0.65408078  0.54465777    -0.54900
C272        C  0.37233449  0.63549710  0.54549049     0.09100
C273        C  0.36668397  0.71360717  0.50894733    -0.54500
C274        C  0.40676147  0.69428477  0.50869290     0.09600
H275        H  0.31147151  0.66023583  0.42607035     0.14200
H276        H  0.43569107  0.63339315  0.50313977    -0.00100
H277        H  0.30591308  0.64489506  0.56970426     0.14500
H278        H  0.36421037  0.74611296  0.51129013     0.14200
C279        C  0.15807376  0.78263245  0.49604547     0.86000
C280        C  0.15092472  0.81317613  0.45337830    -0.54200
C281        C  0.11164510  0.83401530  0.45556837     0.09000
C282        C  0.08270519  0.82237105  0.49921233     0.19900
C283        C  0.15275588  0.80839210  0.54197561    -0.54900
C284        C  0.11325286  0.82870199  0.54382033     0.09100
C285        C  0.11588551  0.75602463  0.49352800    -0.54500
C286        C  0.07666261  0.77667458  0.49562718     0.09600
H287        H  0.17344382  0.81859206  0.42354178     0.14200
H288        H  0.05059024  0.83899533  0.50108869    -0.00100
H289        H  0.17738949  0.80919723  0.57137658     0.14500
H290        H  0.11699475  0.72342640  0.49156218     0.14200
C291        C  0.15491045  0.69369173  0.99567521     0.86000
C292        C  0.14499096  0.66356157  0.03779560    -0.54200
C293        C  0.10520036  0.64367079  0.03253619     0.09000
C294        C  0.07872378  0.65533392  0.98652430     0.19900
C295        C  0.15105915  0.66755810  0.94960134    -0.54900
C296        C  0.11081855  0.64841324  0.94441182     0.09100
C297        C  0.11340888  0.72099554  0.99511937    -0.54500
C298        C  0.07376734  0.70115612  0.98930661     0.09600
H299        H  0.16544149  0.65852733  0.07000335     0.14200
H300        H  0.04649875  0.63880068  0.98264740    -0.00100
H301        H  0.17741708  0.66529432  0.92289831     0.14500
H302        H  0.11533138  0.75335051  0.00003440     0.14200
C303        C  0.32194967  0.79150022  0.00505454     0.86000
C304        C  0.33073118  0.81509918  0.05233804    -0.54200
C305        C  0.37245533  0.83181814  0.05542654     0.09000
C306        C  0.40089123  0.82531440  0.01007183     0.19900
C307        C  0.33084472  0.82320965  0.96428416    -0.54900
C308        C  0.37227631  0.84081526  0.96709953     0.09100
C309        C  0.36119818  0.76222710  0.00005185    -0.54500
C310        C  0.40231105  0.77957218  0.00368481     0.09600
H311        H  0.30636813  0.81763627  0.08113436     0.14200
H312        H  0.43453962  0.83956144  0.01229834    -0.00100
H313        H  0.30812256  0.83126572  0.93491023     0.14500
H314        H  0.35631868  0.73066532  0.99205266     0.14200
In315      In  0.49908976  0.98179082  0.75022158     1.36900
C316        C  0.45473702  0.52691755  0.68504093     0.77100
O317        O  0.50464074  0.54133414  0.78678394    -0.61300
O318        O  0.06136488  0.50338192  0.78959285    -0.52200
C319        C  0.45640997  0.93746190  0.81697294     0.69800
O320        O  0.44008376  0.94509040  0.77543896    -0.47100
C321        C  0.03971764  0.92772202  0.69485582     0.74500
O322        O  0.43849401  0.51715789  0.72563316    -0.58900
O323        O  0.05956297  0.95863381  0.71068944    -0.49000
O324        O  0.49370306  0.51397562  0.67821615    -0.55400
C325        C  0.04425925  0.53633064  0.80204473     0.84700
O326        O  0.99449607  0.95275153  0.82450255    -0.57300
O327        O  0.49999097  0.92433871  0.70902378    -0.60600
In328      In  0.49455191  0.99252467  0.24969490     1.36900
C329        C  0.44931654  0.94301145  0.19239169     0.77100
O330        O  0.49203953  0.54588022  0.19924963    -0.61300
O331        O  0.05036776  0.51005589  0.19832979    -0.52200
C332        C  0.45606113  0.54158391  0.31222420     0.69800
O333        O  0.43405053  0.51641156  0.28735517    -0.47100
C334        C  0.03801076  0.94311209  0.31114060     0.74500
O335        O  0.42982591  0.96691700  0.22054428    -0.58900
O336        O  0.05439340  0.97623271  0.29730758    -0.49000
O337        O  0.49149307  0.94545235  0.19331696    -0.55400
C338        C  0.03011319  0.54045211  0.18143434     0.84700
O339        O  0.99765023  0.54088205  0.30514048    -0.57300
O340        O  0.49978581  0.93552018  0.29380946    -0.60600
C341        C  0.36336407  0.88912279  0.11197411    -0.20800
C342        C  0.38877266  0.85604512  0.09715700    -0.07300
C343        C  0.43186511  0.85002430  0.11777251     0.13500
C344        C  0.45014359  0.87908703  0.14847624    -0.20800
C345        C  0.42587605  0.91323374  0.16151383    -0.07300
C346        C  0.38127591  0.91777552  0.14424999     0.13500
C347        C  0.35316637  0.95342416  0.15767197    -0.24200
H348        H  0.33026252  0.89364586  0.09629532     0.14800
H349        H  0.98371006  0.87457007  0.16301719     0.14900
C350        C  0.45921931  0.81285549  0.10953213    -0.24100
H351        H  0.31975951  0.95266990  0.13944889     0.05100
H352        H  0.37023934  0.98168725  0.14651369     0.08300
H353        H  0.34769258  0.95345805  0.19754645     0.08300
H354        H  0.48894802  0.82040616  0.08732667     0.08300
H355        H  0.43952826  0.78909533  0.09160547     0.08300
H356        H  0.97063828  0.80014429  0.14507006     0.05000
C357        C  0.43565927  0.92538750  0.90291428    -0.20800
C358        C  0.43284196  0.91317488  0.85425648    -0.07300
C359        C  0.40781532  0.87831599  0.84249501     0.13500
C360        C  0.38743837  0.85601061  0.87994746    -0.20800
C361        C  0.39033225  0.86819399  0.92873668    -0.07300
C362        C  0.41348883  0.90423401  0.93995940     0.13500
C363        C  0.41364603  0.92250053  0.98989480    -0.24200
H364        H  0.45396770  0.95261193  0.91190398     0.14800
H365        H  0.37000563  0.82831452  0.87120671     0.14900
C366        C  0.40400283  0.86352022  0.79091668    -0.24100
H367        H  0.40242409  0.95426647  0.98721519     0.05100
H368        H  0.44800304  0.92170042  0.00574687     0.08300
H369        H  0.39035929  0.90709236  0.01480767     0.08300
H370        H  0.43791473  0.85841201  0.77610366     0.08300
H371        H  0.38602349  0.88598938  0.76792562     0.08300
H372        H  0.38505581  0.83477867  0.78871411     0.05000
C373        C  0.07546687  0.55063711  0.10695032    -0.20800
C374        C  0.04925295  0.56739351  0.14370667    -0.07300
C375        C  0.04188697  0.60947642  0.14369921     0.13500
C376        C  0.06149491  0.63360796  0.10754833    -0.20800
C377        C  0.08686062  0.61669895  0.07051794    -0.07300
C378        C  0.09365028  0.57480209  0.06980974     0.13500
C379        C  0.11962144  0.55570823  0.02958252    -0.24200
H380        H  0.08082940  0.51843140  0.10663487     0.14800
H381        H  0.05678126  0.66588900  0.10792338     0.14900
C382        C  0.51440285  0.62940121  0.18225223    -0.24100
H383        H  0.12236263  0.52263937  0.03467794     0.05100
H384        H  0.15395846  0.56856885  0.02848205     0.08300
H385        H  0.10234663  0.56156806  0.99426307     0.08300
H386        H  0.52845010  0.62210090  0.21885627     0.08300
H387        H  0.47911644  0.61896796  0.17974350     0.08300
H388        H  0.51424368  0.66264353  0.17793799     0.05000
C389        C  0.04698720  0.60447254  0.83729091    -0.20800
C390        C  0.06714283  0.56655668  0.83334593    -0.07300
C391        C  0.10598523  0.55807106  0.86188633     0.13500
C392        C  0.12135354  0.58658857  0.89581178    -0.20800
C393        C  0.09856347  0.62285032  0.90240208    -0.07300
C394        C  0.06204046  0.63257815  0.87145151     0.13500
C395        C  0.03867697  0.67252753  0.87412520    -0.24200
H396        H  0.01812865  0.61176539  0.81461962     0.14800
H397        H  0.14992183  0.57969320  0.91912774     0.14900
C398        C  0.13044097  0.51867694  0.85851384    -0.24100
H399        H  0.01338349  0.67634218  0.84448568     0.05100
H400        H  0.06354935  0.69721318  0.87069179     0.08300
H401        H  0.02081354  0.67485709  0.90898388     0.08300
H402        H  0.14273247  0.01456382  0.82095263     0.08300
H403        H  0.10758803  0.99330173  0.86828078     0.08300
H404        H  0.15969315  0.01721379  0.88366913     0.05000
C405        C  0.49691866  0.70416573  0.02052060    -0.20800
C406        C  0.02960370  0.72123341  0.99048376    -0.07300
C407        C  0.01922138  0.75640878  0.96318263     0.13500
C408        C  0.47732042  0.77426389  0.96852613    -0.20800
C409        C  0.44480766  0.75735222  0.99882938    -0.07300
C410        C  0.45464955  0.72160654  0.02524959     0.13500
C411        C  0.42217711  0.70230204  0.06015973    -0.24200
H412        H  0.50465883  0.67712727  0.04109719     0.14800
H413        H  0.46957156  0.80127094  0.94772903     0.14900
C414        C  0.04996829  0.77519658  0.92633031    -0.24100
H415        H  0.43806277  0.67750910  0.08148227     0.05100
H416        H  0.39353878  0.68890381  0.04008908     0.08300
H417        H  0.40997491  0.72464204  0.08650865     0.08300
H418        H  0.07969312  0.75681559  0.91929605     0.08300
H419        H  0.06078858  0.80539987  0.93886241     0.08300
H420        H  0.03192993  0.77850944  0.89093477     0.05000
C421        C  0.24611269  0.77323174  0.96690959    -0.20800
C422        C  0.27750678  0.76793191  0.00494010    -0.07300
C423        C  0.26826851  0.73755190  0.04048736     0.13500
C424        C  0.22919229  0.71420851  0.03641005    -0.20800
C425        C  0.19825460  0.71894730  0.99774362    -0.07300
C426        C  0.20780764  0.74906004  0.96201989     0.13500
C427        C  0.17923272  0.75742306  0.91726782    -0.24200
H428        H  0.25119581  0.79559388  0.93899267     0.14800
H429        H  0.22422337  0.69164230  0.06416227     0.14900
C430        C  0.29851255  0.72738827  0.08348145    -0.24100
H431        H  0.20020743  0.75526872  0.88431448     0.05100
H432        H  0.16546996  0.78835158  0.91916326     0.08300
H433        H  0.15111811  0.73651649  0.91181047     0.08300
H434        H  0.32979689  0.74485508  0.08581495     0.08300
H435        H  0.30822162  0.69522451  0.08178113     0.08300
H436        H  0.28007010  0.73227343  0.11776323     0.05000
C437        C  0.05792680  0.84078095  0.60759563    -0.20800
C438        C  0.09857356  0.85199275  0.58643785    -0.07300
C439        C  0.12181889  0.88609641  0.60415974     0.13500
C440        C  0.10263346  0.90895341  0.64116044    -0.20800
C441        C  0.06059390  0.89910838  0.66057656    -0.07300
C442        C  0.03855636  0.86367902  0.64435748     0.13500
C443        C  0.49442557  0.84966354  0.66471785    -0.24200
H444        H  0.04064840  0.81425022  0.59435378     0.14800
H445        H  0.12002815  0.93573165  0.65346752     0.14900
C446        C  0.16559215  0.90074073  0.58364364    -0.24100
H447        H  0.48366255  0.82039485  0.64922286     0.05100
H448        H  0.46778456  0.87181093  0.65576030     0.08300
H449        H  0.99750966  0.84561800  0.70477424     0.08300
H450        H  0.19180444  0.89995346  0.61261972     0.08300
H451        H  0.17741494  0.88280124  0.55270163     0.08300
H452        H  0.16175477  0.93224971  0.57055561     0.05000
C453        C  0.07287830  0.93024397  0.39191047    -0.20800
C454        C  0.06084387  0.91571609  0.34588182    -0.07300
C455        C  0.06879089  0.87497959  0.33475022     0.13500
C456        C  0.08746991  0.84943505  0.37055858    -0.20800
C457        C  0.09689686  0.86336899  0.41762417    -0.07300
C458        C  0.09043841  0.90445842  0.42809151     0.13500
C459        C  0.10314097  0.92147482  0.47684284    -0.24200
H460        H  0.06719903  0.96164843  0.40003659     0.14800
H461        H  0.09350220  0.81814290  0.36226313     0.14900
C462        C  0.05823877  0.85860050  0.28495359    -0.24100
H463        H  0.09763325  0.95445259  0.47817099     0.05100
H464        H  0.13918940  0.91577392  0.48404254     0.08300
H465        H  0.08269712  0.90738835  0.50574359     0.08300
H466        H  0.07694195  0.87596510  0.25706244     0.08300
H467        H  0.02179165  0.86090305  0.27712849     0.08300
H468        H  0.06780355  0.82647017  0.28204053     0.05000
C469        C  0.40532796  0.58473951  0.66579219    -0.20800
C470        C  0.43053744  0.55231304  0.64899173    -0.07300
C471        C  0.43299200  0.54548233  0.59840733     0.13500
C472        C  0.41072553  0.57164288  0.56600238    -0.20800
C473        C  0.38728865  0.60530447  0.58252995    -0.07300
C474        C  0.38430933  0.61181572  0.63333055     0.13500
C475        C  0.36149042  0.64818030  0.65396086    -0.24200
H476        H  0.40363174  0.58986560  0.70462620     0.14800
H477        H  0.41279215  0.56644525  0.52720240     0.14900
C478        C  0.95874991  0.51058738  0.57824522    -0.24100
H479        H  0.36717181  0.65049784  0.69385899     0.05100
H480        H  0.32482379  0.64612908  0.64795855     0.08300
H481        H  0.37462541  0.67610750  0.63688406     0.08300
H482        H  0.94637553  0.48197148  0.59437611     0.08300
H483        H  0.99498909  0.51416083  0.58660009     0.08300
H484        H  0.95495317  0.50861737  0.53807139     0.05000
C485        C  0.39140642  0.55993213  0.36352366    -0.20800
C486        C  0.43472465  0.56917262  0.34719284    -0.07300
C487        C  0.45654122  0.60413220  0.36500280     0.13500
C488        C  0.43500769  0.62793800  0.39936928    -0.20800
C489        C  0.39238450  0.61803296  0.41655221    -0.07300
C490        C  0.37006740  0.58374160  0.39822356     0.13500
C491        C  0.32488513  0.57092817  0.41676855    -0.24200
H492        H  0.37453627  0.53328517  0.35003789     0.14800
H493        H  0.45190201  0.65433191  0.41362789     0.14900
C494        C  0.00226403  0.61706247  0.34803987    -0.24100
H495        H  0.31388712  0.54186935  0.40090834     0.05100
H496        H  0.29928935  0.59369379  0.40673720     0.08300
H497        H  0.32636202  0.56720094  0.45695153     0.08300
H498        H  0.00187912  0.62091651  0.30786954     0.08300
H499        H  0.02764884  0.59435443  0.35910601     0.08300
H500        H  0.01278592  0.64616848  0.36416714     0.05000
C501        C  0.02520916  0.72969050  0.53754941    -0.20800
C502        C  0.03267362  0.75625049  0.49851383    -0.07300
C503        C  0.49856430  0.76248134  0.46322755     0.13500
C504        C  0.45754172  0.74238064  0.46823643    -0.20800
C505        C  0.45010682  0.71577885  0.50716699    -0.07300
C506        C  0.48429967  0.70925366  0.54231992     0.13500
C507        C  0.47745484  0.68196004  0.58567787    -0.24200
H508        H  0.05152026  0.72516422  0.56458709     0.14800
H509        H  0.43137599  0.74667827  0.44097375     0.14900
C510        C  0.50587368  0.78862986  0.41905907    -0.24100
H511        H  0.00678917  0.68242578  0.61091802     0.05100
H512        H  0.47264537  0.65047696  0.57388785     0.08300
H513        H  0.44777914  0.69191727  0.60613113     0.08300
H514        H  0.03519330  0.77745121  0.39888370     0.08300
H515        H  0.51153759  0.82021791  0.43001960     0.08300
H516        H  0.47647490  0.78824604  0.39390507     0.05000
C517        C  0.23389379  0.76140808  0.46175436    -0.20800
C518        C  0.20117998  0.75721839  0.49793721    -0.07300
C519        C  0.20979459  0.72887590  0.53617050     0.13500
C520        C  0.24950749  0.70644567  0.53652376    -0.20800
C521        C  0.28202032  0.71030957  0.50008396    -0.07300
C522        C  0.27379614  0.73917537  0.46233765     0.13500
C523        C  0.30602511  0.74888327  0.42173448    -0.24200
H524        H  0.22957605  0.78252351  0.43218621     0.14800
H525        H  0.25448969  0.68640098  0.56703164     0.14900
C526        C  0.17881187  0.72075540  0.57840724    -0.24100
H527        H  0.28958934  0.74256503  0.38613423     0.05100
H528        H  0.33780001  0.73218281  0.42296862     0.08700
H529        H  0.31484597  0.78134549  0.42292848     0.08300
H530        H  0.16958522  0.68837643  0.57906661     0.08300
H531        H  0.14727010  0.73780360  0.57778240     0.08300
H532        H  0.19652920  0.72800147  0.61303767     0.05000
C533        C  0.82597933  0.18594984  0.50321627     0.86000
C534        C  0.83468322  0.16112373  0.45719738    -0.54200
C535        C  0.87502665  0.14192994  0.45767331     0.09000
C536        C  0.90294573  0.14882450  0.50405873     0.19900
C537        C  0.83175713  0.15439056  0.54496814    -0.54900
C538        C  0.87251210  0.13573226  0.54584286     0.09100
C539        C  0.86699439  0.21377192  0.50895014    -0.54500
C540        C  0.90704078  0.19437952  0.50878516     0.09600
H541        H  0.81166542  0.16024841  0.42635438     0.14200
H542        H  0.93584700  0.13341994  0.50349208    -0.00100
H543        H  0.80612949  0.14526593  0.57003459     0.14500
H544        H  0.86457642  0.24629080  0.51111502     0.14200
C545        C  0.65834368  0.28282579  0.49603417     0.86000
C546        C  0.65115725  0.31339015  0.45339222    -0.54200
C547        C  0.61183808  0.33418758  0.45560672     0.09000
C548        C  0.58291965  0.32247045  0.49924386     0.19900
C549        C  0.65300196  0.30857390  0.54197193    -0.54900
C550        C  0.61346691  0.32883252  0.54383849     0.09100
C551        C  0.61619883  0.25616983  0.49352133    -0.54500
C552        C  0.57695220  0.27676484  0.49565569     0.09600
H553        H  0.67371934  0.31888247  0.42361229     0.14200
H554        H  0.55076941  0.33904006  0.50113151    -0.00100
H555        H  0.67764167  0.30940385  0.57136206     0.14500
H556        H  0.61735559  0.22357162  0.49154517     0.14200
C557        C  0.65503442  0.19350760  0.99575168     0.86000
C558        C  0.64515669  0.16340324  0.03790866    -0.54200
C559        C  0.60533278  0.14355222  0.03275080     0.09000
C560        C  0.57879553  0.15519727  0.98676439     0.19900
C561        C  0.65108148  0.16735099  0.94969737    -0.54900
C562        C  0.61081476  0.14822211  0.94459352     0.09100
C563        C  0.61355322  0.22083907  0.99524072    -0.54500
C564        C  0.57388608  0.20102228  0.98950301     0.09600
H565        H  0.66565858  0.15835759  0.07006944     0.14200
H566        H  0.54654785  0.13868991  0.98295552    -0.00100
H567        H  0.67739382  0.16506323  0.92294138     0.14500
H568        H  0.61550959  0.25319448  0.00010770     0.14200
C569        C  0.82209634  0.29137869  0.00493862     0.86000
C570        C  0.83080464  0.31506591  0.05218148    -0.54200
C571        C  0.87250374  0.33184411  0.05527634     0.09000
C572        C  0.90099252  0.32528949  0.00997131     0.19900
C573        C  0.83100541  0.32303128  0.96408856    -0.54900
C574        C  0.87241405  0.34069465  0.96691459     0.09100
C575        C  0.86138647  0.26214203  0.00007524    -0.54500
C576        C  0.90247003  0.27953477  0.00371618     0.09600
H577        H  0.80643156  0.31757610  0.08097567     0.14200
H578        H  0.93462692  0.33955927  0.01221410    -0.00100
H579        H  0.80829076  0.33102030  0.93467721     0.14500
H580        H  0.85656055  0.23055290  0.99218017     0.14200
In581      In  0.99920459  0.48189234  0.75015291     1.36900
C582        C  0.95451918  0.02677429  0.68516779     0.77100
O583        O  0.00445609  0.04116664  0.78704365    -0.61300
O584        O  0.56132814  0.00338075  0.78943196    -0.52200
C585        C  0.95655125  0.43749480  0.81688524     0.69800
O586        O  0.94012895  0.44529056  0.77543867    -0.47100
C587        C  0.53980664  0.42786689  0.69473940     0.74500
O588        O  0.93834293  0.01704576  0.72579684    -0.58900
O589        O  0.55968970  0.45871236  0.71070281    -0.49000
O590        O  0.99344863  0.01378784  0.67825574    -0.55400
C591        C  0.54414982  0.03624180  0.80209755     0.84700
O592        O  0.49469409  0.45268284  0.82435703    -0.57300
O593        O  0.00002516  0.42454852  0.70874680    -0.60600
In594      In  0.99467355  0.49250697  0.24955563     1.36900
C595        C  0.94943434  0.44289269  0.19240612     0.77100
O596        O  0.99195734  0.04592539  0.19941050    -0.61300
O597        O  0.55036446  0.01018387  0.19874362    -0.52200
C598        C  0.95606697  0.04157682  0.31249234     0.69800
O599        O  0.93398427  0.01650098  0.28755309    -0.47100
C600        C  0.53810628  0.44327074  0.31120103     0.74500
O601        O  0.92995443  0.46705012  0.22024874    -0.58900
O602        O  0.55456877  0.47629814  0.29714188    -0.49000
O603        O  0.99162289  0.44509866  0.19360355    -0.55400
C604        C  0.53011490  0.04055234  0.18176877     0.84700
O605        O  0.49764670  0.04080287  0.30539308    -0.57300
O606        O  0.99982527  0.43569691  0.29400426    -0.60600
C607        C  0.86345038  0.38914752  0.11186887    -0.20800
C608        C  0.88881965  0.35604869  0.09704245    -0.07300
C609        C  0.93188225  0.34996431  0.11771834     0.13500
C610        C  0.95017392  0.37897347  0.14848078    -0.20800
C611        C  0.92595633  0.41314290  0.16151770    -0.07300
C612        C  0.88137744  0.41774811  0.14421040     0.13500
C613        C  0.85330059  0.45339982  0.15768701    -0.24200
H614        H  0.83036589  0.39372209  0.09616013     0.14800
H615        H  0.48371603  0.37439652  0.16305744     0.14900
C616        C  0.95919981  0.31277986  0.10949245    -0.24100
H617        H  0.81990035  0.45269410  0.13945299     0.05100
H618        H  0.87040297  0.48166371  0.14658353     0.08300
H619        H  0.84781748  0.45338458  0.19756134     0.08300
H620        H  0.98894401  0.32030180  0.08729931     0.08300
H621        H  0.93947777  0.28905301  0.09156697     0.08300
H622        H  0.47058365  0.30004898  0.14503384     0.05000
C623        C  0.93593463  0.42525646  0.90283008    -0.20800
C624        C  0.93302587  0.41314585  0.85414341    -0.07300
C625        C  0.90790751  0.37835399  0.84232220     0.13500
C626        C  0.88752217  0.35601116  0.87974337    -0.20800
C627        C  0.89047181  0.36810969  0.92856272    -0.07300
C628        C  0.91369821  0.40410784  0.93983292     0.13500
C629        C  0.91378944  0.42237328  0.98976458    -0.24200
H630        H  0.95431161  0.45243743  0.91186889     0.14800
H631        H  0.87002876  0.32835306  0.87094759     0.14900
C632        C  0.90400596  0.36367210  0.79070374    -0.24100
H633        H  0.90270991  0.45417884  0.98704777     0.05100
H634        H  0.94809401  0.42145221  0.00574157     0.08300
H635        H  0.89034643  0.40705128  0.01458054     0.08300
H636        H  0.93788971  0.35851172  0.77584281     0.08300
H637        H  0.88607783  0.38623043  0.76779569     0.08300
H638        H  0.88496653  0.33498404  0.78843553     0.05000
C639        C  0.57584915  0.05069325  0.10759736    -0.20800
C640        C  0.54933867  0.06746955  0.14407790    -0.07300
C641        C  0.54173232  0.10951689  0.14378243     0.13500
C642        C  0.56139927  0.13359958  0.10762437    -0.20800
C643        C  0.58701582  0.11665713  0.07082565    -0.07300
C644        C  0.59406684  0.07479347  0.07042579     0.13500
C645        C  0.62034150  0.05565945  0.03047407    -0.24200
H646        H  0.58139924  0.01851194  0.10749761     0.14800
H647        H  0.55654333  0.16586309  0.10781954     0.14900
C648        C  0.01391690  0.12946020  0.18202970    -0.24100
H649        H  0.62318690  0.02261604  0.03574080     0.05100
H650        H  0.65463160  0.06862991  0.02955340     0.08300
H651        H  0.60324637  0.06135929  0.99501527     0.08300
H652        H  0.02780291  0.12236885  0.21876340     0.08300
H653        H  0.97870562  0.11884920  0.17934758     0.08300
H654        H  0.01358116  0.16268329  0.17751600     0.05000
C655        C  0.54692371  0.10437113  0.83739983    -0.20800
C656        C  0.56704322  0.06644331  0.83342210    -0.07300
C657        C  0.60584960  0.05789883  0.86198846     0.13500
C658        C  0.62118574  0.08634506  0.89602038    -0.20800
C659        C  0.59846761  0.12264480  0.90260583    -0.07300
C660        C  0.56200280  0.13244407  0.87159702     0.13500
C661        C  0.53876477  0.17245162  0.87421523    -0.24200
H662        H  0.51809664  0.11170975  0.81469309     0.14800
H663        H  0.64971402  0.07939493  0.91935702     0.14900
C664        C  0.63031365  0.01851611  0.85851224    -0.24100
H665        H  0.51346801  0.17629587  0.84458376     0.05100
H666        H  0.56371830  0.19706511  0.87071819     0.08300
H667        H  0.52093894  0.17486903  0.90908589     0.08300
H668        H  0.64278602  0.51461695  0.82094486     0.08300
H669        H  0.60773020  0.49349233  0.86843859     0.08300
H670        H  0.65986827  0.51744256  0.88361011     0.05000
C671        C  0.99704863  0.20413347  0.02076168    -0.20800
C672        C  0.52974097  0.22113357  0.99067667    -0.07300
C673        C  0.51939667  0.25629395  0.96333592     0.13500
C674        C  0.97751622  0.27419099  0.96866358    -0.20800
C675        C  0.94498826  0.25733253  0.99899144    -0.07300
C676        C  0.95480849  0.22162680  0.02550299     0.13500
C677        C  0.92234227  0.20241370  0.06050333    -0.24200
H678        H  0.00474881  0.17709361  0.04134878     0.14800
H679        H  0.96978415  0.30117614  0.94781029     0.14900
C680        C  0.55016820  0.27500256  0.92644825    -0.24100
H681        H  0.93824921  0.17770128  0.08194466     0.05100
H682        H  0.89371546  0.18893650  0.04049470     0.08300
H683        H  0.91010630  0.22481518  0.08675634     0.08300
H684        H  0.57977961  0.25650042  0.91932222     0.08300
H685        H  0.56116629  0.30514667  0.93900955     0.08300
H686        H  0.53209451  0.27842337  0.89108967     0.05000
C687        C  0.74628907  0.27297582  0.96679039    -0.20800
C688        C  0.77768117  0.26774329  0.00483160    -0.07300
C689        C  0.76845151  0.23739335  0.04042422     0.13500
C690        C  0.72937544  0.21403297  0.03639625    -0.20800
C691        C  0.69840693  0.21874497  0.99774861    -0.07300
C692        C  0.70794556  0.24883641  0.96199209     0.13500
C693        C  0.67928243  0.25724710  0.91732448    -0.24200
H694        H  0.75138180  0.29530064  0.93882187     0.14800
H695        H  0.72441907  0.19150715  0.06418301     0.14900
C696        C  0.79870563  0.22728345  0.08342496    -0.24100
H697        H  0.70018914  0.25514945  0.88431424     0.05100
H698        H  0.66550764  0.28816871  0.91931937     0.08300
H699        H  0.65118252  0.23632648  0.91189149     0.08300
H700        H  0.82993745  0.24482675  0.08577968     0.08300
H701        H  0.80849623  0.19514115  0.08171822     0.08300
H702        H  0.78024198  0.23212484  0.11770030     0.05000
C703        C  0.55810809  0.34089539  0.60758618    -0.20800
C704        C  0.59876583  0.35211631  0.58644758    -0.07300
C705        C  0.62202072  0.38620174  0.60421134     0.13500
C706        C  0.60277159  0.40909374  0.64113526    -0.20800
C707        C  0.56072016  0.39924467  0.66051448    -0.07300
C708        C  0.53874457  0.36376225  0.64437966     0.13500
C709        C  0.99475461  0.34960226  0.66496248    -0.24200
H710        H  0.54085042  0.31434961  0.59435780     0.14800
H711        H  0.62014287  0.43588650  0.65343565     0.14900
C712        C  0.66587958  0.40078763  0.58383987    -0.24100
H713        H  0.98409550  0.32025803  0.64959391     0.05100
H714        H  0.96796290  0.37161511  0.65606533     0.08300
H715        H  0.49800126  0.34564443  0.70501801     0.08300
H716        H  0.69202782  0.39990009  0.61288639     0.08300
H717        H  0.67772194  0.38288573  0.55287898     0.08300
H718        H  0.66215595  0.43232460  0.57081536     0.05000
C719        C  0.57276188  0.43041171  0.39208942    -0.20800
C720        C  0.56093671  0.41591776  0.34598386    -0.07300
C721        C  0.56905400  0.37522381  0.33479725     0.13500
C722        C  0.58775831  0.34968864  0.37059542    -0.20800
C723        C  0.59703262  0.36357576  0.41771376    -0.07300
C724        C  0.59032806  0.40462335  0.42827343     0.13500
C725        C  0.60277964  0.42159843  0.47712293    -0.24200
H726        H  0.56691859  0.46178392  0.40026439     0.14800
H727        H  0.59391383  0.31842593  0.36225142     0.14900
C728        C  0.55860573  0.35887093  0.28496265    -0.24100
H729        H  0.59714767  0.45455669  0.47849842     0.05100
H730        H  0.63881941  0.41598831  0.48448587     0.08300
H731        H  0.58227009  0.40741450  0.50589977     0.08300
H732        H  0.57727550  0.37631520  0.25711624     0.08300
H733        H  0.52215670  0.36108902  0.27710490     0.08300
H734        H  0.56827725  0.32676958  0.28201098     0.05000
C735        C  0.90525823  0.08472017  0.66606556    -0.20800
C736        C  0.93032085  0.05222425  0.64919263    -0.07300
C737        C  0.93271719  0.04542856  0.59859881     0.13500
C738        C  0.91054842  0.07169751  0.56625387    -0.20800
C739        C  0.88731571  0.10545036  0.58284370    -0.07300
C740        C  0.88436542  0.11191540  0.63365413     0.13500
C741        C  0.86172957  0.14835206  0.65433611    -0.24200
H742        H  0.90360950  0.08981700  0.70490852     0.14800
H743        H  0.91255826  0.06652332  0.52744409     0.14900
C744        C  0.45833234  0.01047823  0.57835399    -0.24100
H745        H  0.86743655  0.15061708  0.69423460     0.05100
H746        H  0.82505242  0.14645030  0.64833405     0.08300
H747        H  0.87499410  0.17624009  0.63728543     0.08300
H748        H  0.44584637  0.98187874  0.59442239     0.08300
H749        H  0.49458927  0.01391983  0.58670094     0.08300
H750        H  0.45452272  0.00858080  0.53817452     0.05000
C751        C  0.89144595  0.05999558  0.36378017    -0.20800
C752        C  0.93481902  0.06914370  0.34754057    -0.07300
C753        C  0.95677843  0.10396886  0.36554094     0.13500
C754        C  0.93523436  0.12782304  0.39984424    -0.20800
C755        C  0.89254578  0.11801316  0.41692172    -0.07300
C756        C  0.87016196  0.08377864  0.39854025     0.13500
C757        C  0.82499355  0.07096489  0.41713294    -0.24200
H758        H  0.87450043  0.03341824  0.35020318     0.14800
H759        H  0.95219654  0.15414960  0.41418671     0.14900
C760        C  0.50270961  0.11665699  0.34895119    -0.24100
H761        H  0.81397276  0.04191500  0.40126612     0.05100
H762        H  0.79938809  0.09373644  0.40716045     0.08300
H763        H  0.82651773  0.06721064  0.45731224     0.08300
H764        H  0.50261409  0.12062319  0.30879776     0.08300
H765        H  0.52784420  0.09375134  0.36011394     0.08300
H766        H  0.51337147  0.14564780  0.36527794     0.05000
C767        C  0.52551500  0.22975946  0.53760587    -0.20800
C768        C  0.53300014  0.25627736  0.49853050    -0.07300
C769        C  0.99895089  0.26240223  0.46315843     0.13500
C770        C  0.95794036  0.24227537  0.46813778    -0.20800
C771        C  0.95044245  0.21578264  0.50716381    -0.07300
C772        C  0.98460612  0.20931425  0.54237091     0.13500
C773        C  0.97772098  0.18209630  0.58579354    -0.24200
H774        H  0.55179834  0.22528985  0.56468963     0.14800
H775        H  0.93181128  0.24651277  0.44082068     0.14900
C776        C  0.00630129  0.28852337  0.41897399    -0.24100
H777        H  0.50700933  0.18264772  0.61109413     0.05100
H778        H  0.97297320  0.15058264  0.57408677     0.08300
H779        H  0.94799610  0.19206107  0.60615583     0.08300
H780        H  0.53570395  0.27739410  0.39889231     0.08300
H781        H  0.01186106  0.32013117  0.42991655     0.08300
H782        H  0.97696078  0.28805972  0.39374459     0.05000
C783        C  0.73406423  0.26143205  0.46161489    -0.20800
C784        C  0.70145194  0.25742035  0.49793230    -0.07300
C785        C  0.71010918  0.22918278  0.53626594     0.13500
C786        C  0.74983206  0.20678243  0.53668627    -0.20800
C787        C  0.78229168  0.21051803  0.50018092    -0.07300
C788        C  0.77397262  0.23919553  0.46224519     0.13500
C789        C  0.80607513  0.24864854  0.42144539    -0.24200
H790        H  0.72962093  0.28236781  0.43187523     0.14800
H791        H  0.75484779  0.18684995  0.56729489     0.14900
C792        C  0.67912478  0.22108684  0.57850800    -0.24100
H793        H  0.78959130  0.24195465  0.38597295     0.05100
H794        H  0.83793455  0.23208101  0.42285128     0.08700
H795        H  0.81476101  0.28114846  0.42218798     0.08300
H796        H  0.66995135  0.18869639  0.57922248     0.08300
H797        H  0.64754551  0.23807586  0.57783616     0.08300
H798        H  0.69681647  0.22839902  0.61313213     0.05000
C799        C  0.82572069  0.68575232  0.50304269     0.86000
C800        C  0.83448821  0.66107267  0.45691678    -0.54200
C801        C  0.87485994  0.64192090  0.45733717     0.09000
C802        C  0.90275614  0.64873861  0.50375994     0.19900
C803        C  0.83152732  0.65408049  0.54465814    -0.54900
C804        C  0.87233447  0.63549676  0.54549079     0.09100
C805        C  0.86668405  0.71360687  0.50894773    -0.54500
C806        C  0.90676153  0.69428445  0.50869327     0.09600
H807        H  0.81147111  0.66023562  0.42607001     0.14200
H808        H  0.93569113  0.63339276  0.50314008    -0.00100
H809        H  0.80591320  0.64489500  0.56970450     0.14500
H810        H  0.86421049  0.74611261  0.51129054     0.14200
C811        C  0.65807377  0.78263234  0.49604541     0.86000
C812        C  0.65092480  0.81317595  0.45337831    -0.54200
C813        C  0.61164533  0.83401520  0.45556811     0.09000
C814        C  0.58270525  0.82237101  0.49921203     0.19900
C815        C  0.65275586  0.80839201  0.54197568    -0.54900
C816        C  0.61325270  0.82870193  0.54382014     0.09100
C817        C  0.61588550  0.75602457  0.49352789    -0.54500
C818        C  0.57666261  0.77667457  0.49562686     0.09600
H819        H  0.67344466  0.81859189  0.42354099     0.14200
H820        H  0.55059013  0.83899544  0.50108815    -0.00100
H821        H  0.67738871  0.80919711  0.57137593     0.14500
H822        H  0.61699469  0.72342626  0.49156216     0.14200
C823        C  0.65491033  0.69369167  0.99567529     0.86000
C824        C  0.64499090  0.66356148  0.03779556    -0.54200
C825        C  0.60520032  0.64367067  0.03253631     0.09000
C826        C  0.57872370  0.65533394  0.98652454     0.19900
C827        C  0.65105885  0.66755809  0.94960137    -0.54900
C828        C  0.61081821  0.64841326  0.94441194     0.09100
C829        C  0.61340877  0.72099552  0.99511966    -0.54500
C830        C  0.57376719  0.70115606  0.98930691     0.09600
H831        H  0.66544180  0.65852710  0.07000377     0.14200
H832        H  0.54649808  0.63880042  0.98264764    -0.00100
H833        H  0.67741677  0.66529428  0.92289811     0.14500
H834        H  0.61533126  0.75335042  0.00003472     0.14200
C835        C  0.82194966  0.79150008  0.00505442     0.86000
C836        C  0.83073132  0.81509897  0.05233787    -0.54200
C837        C  0.87245536  0.83181798  0.05542645     0.09000
C838        C  0.90089116  0.82531428  0.01007169     0.19900
C839        C  0.83084470  0.82320960  0.96428419    -0.54900
C840        C  0.87227624  0.84081520  0.96709947     0.09100
C841        C  0.86119821  0.76222713  0.00005162    -0.54500
C842        C  0.90231105  0.77957208  0.00368455     0.09600
H843        H  0.80636778  0.81763605  0.08113486     0.14200
H844        H  0.93454001  0.83956149  0.01229820    -0.00100
H845        H  0.80812203  0.83126588  0.93490988     0.14500
H846        H  0.85631861  0.73066441  0.99205211     0.14200
In847      In  0.99909011  0.98179068  0.75022173     1.36900
C848        C  0.95473720  0.52691716  0.68504095     0.77100
O849        O  0.00464118  0.54133407  0.78678388    -0.61300
O850        O  0.56136461  0.50338218  0.78959257    -0.52200
C851        C  0.95641018  0.93746180  0.81697299     0.69800
O852        O  0.94008410  0.94509018  0.77543894    -0.47100
C853        C  0.53971707  0.92772224  0.69485528     0.74500
O854        O  0.93849433  0.51715761  0.72563324    -0.58900
O855        O  0.55956256  0.95863376  0.71068937    -0.49000
O856        O  0.99370325  0.51397518  0.67821603    -0.55400
C857        C  0.54425888  0.53633081  0.80204465     0.84700
O858        O  0.49449588  0.95275156  0.82450245    -0.57300
O859        O  0.99999164  0.92433834  0.70902455    -0.60600
In860      In  0.99455174  0.99252463  0.24969486     1.36900
C861        C  0.94931645  0.94301123  0.19239176     0.77100
O862        O  0.99203943  0.54588052  0.19924966    -0.61300
O863        O  0.55036809  0.51005583  0.19833017    -0.52200
C864        C  0.95606108  0.54158375  0.31222423     0.69800
O865        O  0.93405041  0.51641152  0.28735510    -0.47100
C866        C  0.53801076  0.94311210  0.31114065     0.74500
O867        O  0.92982579  0.96691692  0.22054408    -0.58900
O868        O  0.55439346  0.97623269  0.29730763    -0.49000
O869        O  0.99149303  0.94545206  0.19331722    -0.55400
C870        C  0.53011340  0.54045194  0.18143452     0.84700
O871        O  0.49765027  0.54088230  0.30514044    -0.57300
O872        O  0.99978578  0.93552018  0.29380949    -0.60600
C873        C  0.86336397  0.88912215  0.11197478    -0.20800
C874        C  0.88877268  0.85604485  0.09715699    -0.07300
C875        C  0.93186539  0.85002425  0.11777219     0.13500
C876        C  0.95014364  0.87908699  0.14847587    -0.20800
C877        C  0.92587605  0.91323341  0.16151400    -0.07300
C878        C  0.88127559  0.91777485  0.14425071     0.13500
C879        C  0.85316565  0.95342300  0.15767348    -0.24200
H880        H  0.83026152  0.89364510  0.09629603     0.14800
H881        H  0.48370901  0.87457001  0.16301757     0.14900
C882        C  0.95921960  0.81285554  0.10953136    -0.24100
H883        H  0.81975869  0.95266859  0.13945050     0.05100
H884        H  0.87023853  0.98168703  0.14651494     0.08300
H885        H  0.84769229  0.95345661  0.19754710     0.08300
H886        H  0.98894868  0.82040659  0.08732547     0.08300
H887        H  0.93952918  0.78909597  0.09160539     0.08300
H888        H  0.47063741  0.80014431  0.14507054     0.05000
C889        C  0.93565955  0.92538726  0.90291443    -0.20800
C890        C  0.93284208  0.91317481  0.85425657    -0.07300
C891        C  0.90781519  0.87831605  0.84249503     0.13500
C892        C  0.88743813  0.85601068  0.87994745    -0.20800
C893        C  0.89033218  0.86819395  0.92873670    -0.07300
C894        C  0.91348905  0.90423379  0.93995954     0.13500
C895        C  0.91364639  0.92250018  0.98989502    -0.24200
H896        H  0.95396819  0.95261166  0.91190425     0.14800
H897        H  0.87000523  0.82831478  0.87120664     0.14900
C898        C  0.90400244  0.86352044  0.79091667    -0.24100
H899        H  0.90242494  0.95426642  0.98721548     0.05100
H900        H  0.94800328  0.92169961  0.00574726     0.08300
H901        H  0.89035926  0.90709229  0.01480770     0.08300
H902        H  0.93791458  0.85841204  0.77610343     0.08300
H903        H  0.88602346  0.88598949  0.76792600     0.08300
H904        H  0.88505524  0.83477890  0.78871406     0.05000
C905        C  0.57546729  0.55063719  0.10695073    -0.20800
C906        C  0.54925317  0.56739330  0.14370690    -0.07300
C907        C  0.54188693  0.60947625  0.14369928     0.13500
C908        C  0.56149476  0.63360772  0.10754836    -0.20800
C909        C  0.58686064  0.61669884  0.07051808    -0.07300
C910        C  0.59365072  0.57480195  0.06981016     0.13500
C911        C  0.61962237  0.55570821  0.02958330    -0.24200
H912        H  0.58083025  0.51843013  0.10663545     0.14800
H913        H  0.55678086  0.66588907  0.10792329     0.14900
C914        C  0.01440321  0.62940150  0.18225230    -0.24100
H915        H  0.62236393  0.52263941  0.03467894     0.05100
H916        H  0.65395925  0.56856919  0.02848299     0.08300
H917        H  0.60234758  0.56156778  0.99426344     0.08300
H918        H  0.02845072  0.62210092  0.21885664     0.08300
H919        H  0.97911668  0.61896839  0.17974378     0.08300
H920        H  0.01424424  0.66264358  0.17793826     0.05000
C921        C  0.54698688  0.60447271  0.83729100    -0.20800
C922        C  0.56714241  0.56655685  0.83334593    -0.07300
C923        C  0.60598483  0.55807119  0.86188630     0.13500
C924        C  0.62135320  0.58658868  0.89581180    -0.20800
C925        C  0.59856303  0.62285038  0.90240223    -0.07300
C926        C  0.56204005  0.63257827  0.87145163     0.13500
C927        C  0.53867666  0.67252771  0.87412551    -0.24200
H928        H  0.51812789  0.61176570  0.81461934     0.14800
H929        H  0.64992136  0.57969342  0.91912747     0.14900
C930        C  0.63044065  0.51867715  0.85851387    -0.24100
H931        H  0.51338304  0.67634243  0.84448590     0.05100
H932        H  0.56354873  0.69721303  0.87069225     0.08300
H933        H  0.52081320  0.67485714  0.90898420     0.08300
H934        H  0.64273200  0.01456379  0.82095270     0.08300
H935        H  0.60758745  0.99330167  0.86828079     0.08300
H936        H  0.65969242  0.01721381  0.88366883     0.05000
C937        C  0.99691876  0.70416589  0.02052039    -0.20800
C938        C  0.52960359  0.72123337  0.99048392    -0.07300
C939        C  0.51922129  0.75640873  0.96318280     0.13500
C940        C  0.97732043  0.77426395  0.96852581    -0.20800
C941        C  0.94480768  0.75735220  0.99882907    -0.07300
C942        C  0.95464963  0.72160654  0.02524936     0.13500
C943        C  0.92217712  0.70230235  0.06015962    -0.24200
H944        H  0.00465913  0.67712694  0.04109752     0.14800
H945        H  0.96957170  0.80127054  0.94772899     0.14900
C946        C  0.54996820  0.77519653  0.92633038    -0.24100
H947        H  0.93806325  0.67750889  0.08148275     0.05100
H948        H  0.89353892  0.68890401  0.04008924     0.08300
H949        H  0.90997528  0.72464192  0.08650800     0.08300
H950        H  0.57969298  0.75681563  0.91929621     0.08300
H951        H  0.56078861  0.80540007  0.93886265     0.08300
H952        H  0.53193013  0.77850943  0.89093533     0.05000
C953        C  0.74611260  0.77323165  0.96690955    -0.20800
C954        C  0.77750673  0.76793185  0.00494004    -0.07300
C955        C  0.76826849  0.73755187  0.04048731     0.13500
C956        C  0.72919218  0.71420843  0.03641016    -0.20800
C957        C  0.69825451  0.71894728  0.99774360    -0.07300
C958        C  0.70780753  0.74905998  0.96201987     0.13500
C959        C  0.67923240  0.75742282  0.91726789    -0.24200
H960        H  0.75119585  0.79559385  0.93899238     0.14800
H961        H  0.72422342  0.69164281  0.06416179     0.14900
C962        C  0.79851244  0.72738803  0.08348143    -0.24100
H963        H  0.70020733  0.75526832  0.88431406     0.05100
H964        H  0.66546970  0.78835171  0.91916315     0.08300
H965        H  0.65111831  0.73651680  0.91181076     0.08300
H966        H  0.82979761  0.74485502  0.08581466     0.08300
H967        H  0.80822133  0.69522436  0.08178107     0.08300
H968        H  0.78007061  0.73227332  0.11776258     0.05000
C969        C  0.55792620  0.84078134  0.60759491    -0.20800
C970        C  0.59857329  0.85199268  0.58643765    -0.07300
C971        C  0.62181872  0.88609623  0.60415977     0.13500
C972        C  0.60263323  0.90895344  0.64116036    -0.20800
C973        C  0.56059331  0.89910861  0.66057596    -0.07300
C974        C  0.53855555  0.86367949  0.64435649     0.13500
C975        C  0.99442679  0.84966261  0.66471942    -0.24200
H976        H  0.54064735  0.81425034  0.59435256     0.14800
H977        H  0.62002764  0.93573090  0.65346731     0.14900
C978        C  0.66559224  0.90074018  0.58364398    -0.24100
H979        H  0.98366405  0.82039400  0.64922475     0.05100
H980        H  0.96778518  0.87180996  0.65576197     0.08300
H981        H  0.49750805  0.84561873  0.70477270     0.08300
H982        H  0.69180428  0.89995279  0.61262010     0.08300
H983        H  0.67741483  0.88280115  0.55270233     0.08300
H984        H  0.66175506  0.93225020  0.57055567     0.05000
C985        C  0.57287865  0.93024397  0.39191038    -0.20800
C986        C  0.56084387  0.91571607  0.34588181    -0.07300
C987        C  0.56879077  0.87497955  0.33475018     0.13500
C988        C  0.58746990  0.84943502  0.37055840    -0.20800
C989        C  0.59689719  0.86336892  0.41762392    -0.07300
C990        C  0.59043899  0.90445840  0.42809127     0.13500
C991        C  0.60314199  0.92147479  0.47684247    -0.24200
H992        H  0.56719950  0.96164833  0.40003649     0.14800
H993        H  0.59350203  0.81814259  0.36226288     0.14900
C994        C  0.55823804  0.85860049  0.28495365    -0.24100
H995        H  0.59763433  0.95445257  0.47817064     0.05100
H996        H  0.63918983  0.91577383  0.48404195     0.08300
H997        H  0.58269778  0.90738823  0.50574370     0.08300
H998        H  0.57694104  0.87596501  0.25706230     0.08300
H999        H  0.52179158  0.86090297  0.27712917     0.08300
H1000       H  0.56780289  0.82646990  0.28204053     0.05000
C1001       C  0.90532809  0.58473915  0.66579260    -0.20800
C1002       C  0.93053748  0.55231258  0.64899180    -0.07300
C1003       C  0.93299183  0.54548188  0.59840743     0.13500
C1004       C  0.91072535  0.57164250  0.56600271    -0.20800
C1005       C  0.88728864  0.60530414  0.58253021    -0.07300
C1006       C  0.88430951  0.61181540  0.63333080     0.13500
C1007       C  0.86149073  0.64818004  0.65396123    -0.24200
H1008       H  0.90363212  0.58986505  0.70462517     0.14800
H1009       H  0.91279194  0.56644478  0.52720177     0.14900
C1010       C  0.45874994  0.51058768  0.57824521    -0.24100
H1011       H  0.86717212  0.65049753  0.69385932     0.05100
H1012       H  0.82482415  0.64612888  0.64795892     0.08300
H1013       H  0.87462580  0.67610723  0.63688444     0.08300
H1014       H  0.44637595  0.48197257  0.59437576     0.08300
H1015       H  0.49499004  0.51416125  0.58660030     0.08300
H1016       H  0.45495339  0.50861774  0.53807136     0.05000
C1017       C  0.89140620  0.55993208  0.36352341    -0.20800
C1018       C  0.93472464  0.56917246  0.34719297    -0.07300
C1019       C  0.95654139  0.60413172  0.36500343     0.13500
C1020       C  0.93500792  0.62793762  0.39937002    -0.20800
C1021       C  0.89238450  0.61803260  0.41655253    -0.07300
C1022       C  0.87006725  0.58374150  0.39822354     0.13500
C1023       C  0.82488478  0.57092818  0.41676812    -0.24200
H1024       H  0.87453610  0.53328564  0.35003743     0.14800
H1025       H  0.95190179  0.65433057  0.41362842     0.14900
C1026       C  0.50226374  0.61706308  0.34803884    -0.24100
H1027       H  0.81388668  0.54186957  0.40090773     0.05100
H1028       H  0.79928904  0.59369411  0.40673666     0.08300
H1029       H  0.82636131  0.56720083  0.45695106     0.08300
H1030       H  0.50187870  0.62091692  0.30786853     0.08300
H1031       H  0.52764873  0.59435521  0.35910503     0.08300
H1032       H  0.51278550  0.64616901  0.36416576     0.05000
C1033       C  0.52520889  0.72969092  0.53754927    -0.20800
C1034       C  0.53267364  0.75625056  0.49851352    -0.07300
C1035       C  0.99856414  0.76248147  0.46322813     0.13500
C1036       C  0.95754157  0.74238070  0.46823705    -0.20800
C1037       C  0.95010690  0.71577857  0.50716735    -0.07300
C1038       C  0.98429991  0.70925313  0.54231997     0.13500
C1039       C  0.97745524  0.68195920  0.58567778    -0.24200
H1040       H  0.55152035  0.72516467  0.56458762     0.14800
H1041       H  0.93137575  0.74667853  0.44097456     0.14900
C1042       C  0.00587333  0.78863020  0.41905974    -0.24100
H1043       H  0.50678869  0.68242676  0.61091830     0.05100
H1044       H  0.97264578  0.65047636  0.57388762     0.08300
H1045       H  0.94777979  0.69191629  0.60613110     0.08300
H1046       H  0.53519394  0.77745060  0.39888306     0.08300
H1047       H  0.01153731  0.82021844  0.43002056     0.08300
H1048       H  0.97647453  0.78824652  0.39390601     0.05000
C1049       C  0.73389395  0.76140787  0.46175462    -0.20800
C1050       C  0.70118004  0.75721829  0.49793736    -0.07300
C1051       C  0.70979461  0.72887586  0.53617075     0.13500
C1052       C  0.74950751  0.70644570  0.53652404    -0.20800
C1053       C  0.78202042  0.71030940  0.50008438    -0.07300
C1054       C  0.77379624  0.73917517  0.46233797     0.13500
C1055       C  0.80602538  0.74888295  0.42173486    -0.24200
H1056       H  0.72957617  0.78252353  0.43218614     0.14800
H1057       H  0.75448982  0.68640045  0.56703262     0.14900
C1058       C  0.67881178  0.72075537  0.57840736    -0.24100
H1059       H  0.78958950  0.74256469  0.38613443     0.05100
H1060       H  0.83779978  0.73218281  0.42296902     0.08700
H1061       H  0.81484616  0.78134518  0.42292883     0.08300
H1062       H  0.66958526  0.68837631  0.57906674     0.08300
H1063       H  0.64726967  0.73780357  0.57778225     0.08300
H1064       H  0.69652876  0.72800160  0.61303757     0.05000
loop_ 
_geom_bond_atom_site_label_1 
_geom_bond_atom_site_label_2 
_geom_bond_distance 
_geom_bond_site_symmetry_2 
_ccdc_geom_bond_type 
C1            C2   1.542       .  S
C1            C7   1.540       .  S
C1            C5   1.556       .  S
C1          C255   1.543       .  S
C2            H9   1.085       .  S
C2            C3   1.365       .  D
C3            C4   1.533       .  S
C3          C223   1.481       .  S
C4            C8   1.526       .  S
C4            C6   1.532       .  S
C4           H10   1.110       .  S
C5           H11   1.077       .  S
C5            C6   1.368       .  D
C6          C207   1.489       .  S
C7           H12   1.086       .  S
C7            C8   1.361       .  D
C8          C239   1.477       .  S
C13          C14   1.557       .  S
C13          C19   1.538       .  S
C13          C17   1.542       .  S
C13         C252   1.542       .  S
C14          H21   1.080       .  S
C14          C15   1.367       .  D
C15          C16   1.533       .  S
C15         C191   1.486       .  S
C16          C20   1.534       .  S
C16          C18   1.534       .  S
C16          H22   1.111       .  S
C17          H23   1.086       .  S
C17          C18   1.363       .  D
C18         C172   1.482       .  S
C19          H24   1.087       .  S
C19          C20   1.362       .  D
C20         C236   1.479       .  S
C25          C26   1.555   1_556  S
C25          C31   1.539       .  S
C25          C29   1.545       .  S
C25         C159   1.542       .  S
C26          H33   1.081       .  S
C26          C27   1.365       .  D
C27          C28   1.531   1_554  S
C27         C111   1.479       .  S
C28          C32   1.534       .  S
C28          C30   1.531       .  S
C28          H34   1.111       .  S
C29          H35   1.086       .  S
C29          C30   1.365       .  D
C30         C127   1.482       .  S
C31          H36   1.087   1_556  S
C31          C32   1.362       .  D
C32         C140   1.481       .  S
C37          C38   1.544       .  S
C37          C43   1.534       .  S
C37          C41   1.557   1_554  S
C37         C156   1.539       .  S
C38          H45   1.086       .  S
C38          C39   1.365       .  D
C39          C40   1.534       .  S
C39          C76   1.484       .  S
C40          C44   1.534       .  S
C40          C42   1.535   1_554  S
C40          H46   1.111       .  S
C41          H47   1.080       .  S
C41          C42   1.369       .  D
C42          C95   1.492       .  S
C43          H48   1.083   1_554  S
C43          C44   1.357       .  D
C44         C143   1.479   1_554  S
In49         O54   2.253       .  S
In49         O61   2.230       .  S
In49        O317   2.231       .  S
In49        O850   2.255       .  S
In49        O592   2.256       .  S
In49        O322   2.255       .  S
In49        O589   2.260       .  S
In49        O324   2.242       .  S
C50          O56   1.261       .  A
C50          O58   1.259       .  A
C50         C204   1.479       .  S
O51        In315   2.231   1_545  S
O51         C591   1.261       .  A
O52        In847   2.255   1_445  S
O52          C59   1.262       .  A
C53          O54   1.260       .  A
C53         O592   1.260       .  A
C53          C92   1.482       .  S
C55          O57   1.263       .  A
C55         O593   1.258       .  A
C55         C175   1.489       .  S
O56        In315   2.255   1_545  S
O57        In581   2.260   1_455  S
O58        In315   2.242   1_545  S
C59         O583   1.261       .  A
C59         C124   1.488       .  S
O60        In581   2.256       .  S
O60         C585   1.260       .  A
O61         C587   1.258       .  A
In62         O69   2.250       .  S
In62         O71   2.213       .  S
In62         O74   2.245       .  S
In62        O330   2.241       .  S
In62        O863   2.264       .  S
In62        O871   2.229       .  S
In62        O333   2.250       .  S
In62        O602   2.266       .  S
C63          O69   1.263       .  A
C63          O71   1.262       .  A
C63          C79   1.479       .  S
O64        In328   2.241   1_545  S
O64         C604   1.258       .  A
O65        In860   2.263   1_445  S
O65          C72   1.262       .  A
C66          O67   1.263       .  A
C66         O605   1.260       .  A
C66         C220   1.485       .  S
O67        In328   2.250   1_545  S
C68          O70   1.261       .  A
C68         O606   1.257   1_455  A
C68         C188   1.476       .  S
O70        In594   2.266   1_455  S
C72         O596   1.258   1_455  A
C72         C108   1.483       .  S
O73        In860   2.229   1_545  S
O73         C598   1.260       .  A
O74         C600   1.257       .  A
C75          C76   1.405       .  A
C75          C80   1.408       .  A
C75          H82   1.084       .  S
C76          C77   1.414       .  A
C77          C84   1.504       .  S
C77          C78   1.394       .  A
C78          C79   1.401       .  A
C78         H615   1.085       .  S
C79          C80   1.416       .  A
C80          C81   1.506       .  S
C81          H85   1.111       .  S
C81          H86   1.110       .  S
C81          H87   1.110       .  S
H83         C610   1.085       .  S
C84          H88   1.110       .  S
C84          H89   1.099       .  S
C84         H622   1.111       .  S
H90         C616   1.111       .  S
C91          C92   1.402       .  A
C91          C96   1.404       .  A
C91          H98   1.085       .  S
C92          C93   1.415       .  A
C93         C100   1.507       .  S
C93          C94   1.407       .  A
C94          C95   1.406       .  A
C94          H99   1.084       .  S
C95          C96   1.416       .  A
C96          C97   1.506       .  S
C97         H101   1.111       .  S
C97         H102   1.110   1_556  S
C97         H103   1.104   1_556  S
C100        H104   1.110       .  S
C100        H105   1.110       .  S
C100        H106   1.111       .  S
C107        C108   1.406       .  A
C107        C112   1.406       .  A
C107        H114   1.084       .  S
C108        C109   1.417       .  A
C109        C648   1.508       .  S
C109        C110   1.404       .  A
C110        C111   1.399       .  A
C110        H115   1.083       .  S
C111        C112   1.409       .  A
C112        C113   1.505       .  S
C113        H117   1.110       .  S
C113        H118   1.110       .  S
C113        H119   1.109   1_554  S
C116        C641   1.508       .  S
C116        H120   1.110       .  S
C116        H121   1.110       .  S
C116        H122   1.111       .  S
C123        C124   1.405       .  A
C123        C128   1.400       .  A
C123        H130   1.084       .  S
C124        C125   1.420       .  A
C125        C132   1.506       .  S
C125        C126   1.408       .  A
C126        C127   1.401       .  A
C126        H131   1.084       .  S
C127        C128   1.411       .  A
C128        C129   1.505       .  S
C129        H133   1.111       .  S
C129        H134   1.109       .  S
C129        H135   1.106       .  S
C132        H402   1.110       .  S
C132        H403   1.110   1_545  S
C132        H404   1.111       .  S
H136        C398   1.110       .  S
H137        C398   1.110       .  S
H138        C398   1.111       .  S
C139        C144   1.399       .  A
C139        C672   1.401   1_554  A
C139        H146   1.082       .  S
C140        C141   1.417       .  A
C140        C671   1.401   1_456  A
C141        C148   1.506       .  S
C141        C674   1.397   1_455  A
C142        C143   1.400       .  A
C142        C673   1.397       .  A
C142        H147   1.084       .  S
C143        C144   1.417   1_556  A
C144        C145   1.510       .  S
C145        H149   1.111       .  S
C145        H150   1.106       .  S
C145        H151   1.108       .  S
C148        H152   1.100       .  S
C148        H153   1.110       .  S
C148        H154   1.111       .  S
C155        C156   1.405   1_556  A
C155        C160   1.402       .  A
C155        H162   1.075       .  S
C156        C157   1.428       .  A
C157        C164   1.514       .  S
C157        C158   1.403       .  A
C158        C159   1.407   1_554  A
C158        H163   1.076       .  S
C159        C160   1.427       .  A
C160        C161   1.512       .  S
C161        H165   1.111       .  S
C161        H166   1.111       .  S
C161        H167   1.098       .  S
C164        H168   1.100       .  S
C164        H169   1.111       .  S
C164        H170   1.111       .  S
C171        C172   1.401       .  A
C171        C176   1.402       .  A
C171        H178   1.084       .  S
C172        C173   1.415       .  A
C173        C180   1.508       .  S
C173        C174   1.404       .  A
C174        C175   1.407       .  A
C174        H179   1.084       .  S
C175        C176   1.420       .  A
C176        C709   1.509   1_455  S
C177        C708   1.509       .  S
C177        H181   1.111       .  S
C177        H182   1.110       .  S
C177        H715   1.110       .  S
C180        H184   1.110       .  S
C180        H185   1.105       .  S
C180        H186   1.111       .  S
H183        C709   1.110       .  S
C187        C188   1.400       .  A
C187        C192   1.405       .  A
C187        H194   1.084       .  S
C188        C189   1.413       .  A
C189        C196   1.507       .  S
C189        C190   1.405       .  A
C190        C191   1.403       .  A
C190        H195   1.083       .  S
C191        C192   1.414       .  A
C192        C193   1.503       .  S
C193        H197   1.110       .  S
C193        H198   1.109       .  S
C193        H199   1.107       .  S
C196        H200   1.111       .  S
C196        H201   1.110       .  S
C196        H202   1.111       .  S
C203        C204   1.402       .  A
C203        C208   1.406       .  A
C203        H210   1.084       .  S
C204        C205   1.413       .  A
C205        C744   1.508       .  S
C205        C206   1.402       .  A
C206        C207   1.404       .  A
C206        H211   1.084       .  S
C207        C208   1.419       .  A
C208        C209   1.509       .  S
C209        H213   1.111       .  S
C209        H214   1.107       .  S
C209        H215   1.109       .  S
C212        C737   1.508       .  S
C212        H216   1.110   1_545  S
C212        H217   1.110       .  S
C212        H218   1.111       .  S
C219        C220   1.407       .  A
C219        C224   1.405       .  A
C219        H226   1.084       .  S
C220        C221   1.419       .  A
C221        C760   1.508       .  S
C221        C222   1.402       .  A
C222        C223   1.400       .  A
C222        H227   1.085       .  S
C223        C224   1.412       .  A
C224        C225   1.507       .  S
C225        H229   1.111       .  S
C225        H230   1.108       .  S
C225        H231   1.110       .  S
C228        C753   1.508   1_455  S
C228        H232   1.110       .  S
C228        H233   1.110       .  S
C228        H234   1.111       .  S
C235        C236   1.403       .  A
C235        C772   1.403   1_455  A
C235        H242   1.085       .  S
C236        C769   1.412   1_455  A
C237        C244   1.504       .  S
C237        C238   1.401       .  A
C237        C768   1.412       .  A
C238        C239   1.401       .  A
C238        H243   1.085       .  S
C239        C240   1.413       .  A
C240        C241   1.507       .  S
C240        C767   1.403       .  A
C241        H246   1.107       .  S
C241        H247   1.109       .  S
C241        H777   1.111       .  S
C244        H249   1.107       .  S
C244        H250   1.111       .  S
C244        H780   1.109       .  S
H245        C773   1.111   1_455  S
H248        C776   1.109       .  S
C251        C252   1.408       .  A
C251        C256   1.405       .  A
C251        H258   1.076       .  S
C252        C253   1.427       .  A
C253        C260   1.515       .  S
C253        C254   1.403       .  A
C254        C255   1.408       .  A
C254        H259   1.075       .  S
C255        C256   1.426       .  A
C256        C257   1.514       .  S
C257        H261   1.110       .  S
C257        H262   1.101       .  S
C257        H263   1.111       .  S
C260        H264   1.111       .  S
C260        H265   1.101       .  S
C260        H266   1.111       .  S
C267        C268   1.542       .  S
C267        C273   1.540       .  S
C267        C271   1.556       .  S
C267        C521   1.543       .  S
C268        H275   1.085       .  S
C268        C269   1.365       .  D
C269        C270   1.533       .  S
C269        C489   1.482       .  S
C270        C274   1.526       .  S
C270        C272   1.533       .  S
C270        H276   1.110       .  S
C271        H277   1.077       .  S
C271        C272   1.368       .  D
C272        C473   1.489       .  S
C273        H278   1.086       .  S
C273        C274   1.360       .  D
C274        C505   1.477       .  S
C279        C280   1.557       .  S
C279        C285   1.538       .  S
C279        C283   1.542       .  S
C279        C518   1.542       .  S
C280        H287   1.080       .  S
C280        C281   1.367       .  D
C281        C282   1.533       .  S
C281        C457   1.486       .  S
C282        C286   1.534       .  S
C282        C284   1.534       .  S
C282        H288   1.111       .  S
C283        H289   1.086       .  S
C283        C284   1.363       .  D
C284        C438   1.482       .  S
C285        H290   1.087       .  S
C285        C286   1.362       .  D
C286        C502   1.479       .  S
C291        C292   1.555   1_556  S
C291        C297   1.539       .  S
C291        C295   1.545       .  S
C291        C425   1.541       .  S
C292        H299   1.081       .  S
C292        C293   1.365       .  D
C293        C294   1.530   1_554  S
C293        C377   1.479       .  S
C294        C298   1.534       .  S
C294        C296   1.531       .  S
C294        H300   1.111       .  S
C295        H301   1.086       .  S
C295        C296   1.364       .  D
C296        C393   1.481       .  S
C297        H302   1.087   1_556  S
C297        C298   1.362       .  D
C298        C406   1.481       .  S
C303        C304   1.543       .  S
C303        C309   1.534       .  S
C303        C307   1.556   1_554  S
C303        C422   1.539       .  S
C304        H311   1.086       .  S
C304        C305   1.365       .  D
C305        C306   1.534       .  S
C305        C342   1.484       .  S
C306        C310   1.534       .  S
C306        C308   1.535   1_554  S
C306        H312   1.111       .  S
C307        H313   1.080       .  S
C307        C308   1.369       .  D
C308        C361   1.491       .  S
C309        H314   1.083   1_554  S
C309        C310   1.358       .  D
C310        C409   1.479   1_554  S
In315       O584   2.255   1_565  S
In315       O858   2.256       .  S
In315       O320   2.253       .  S
In315       O855   2.260       .  S
In315       O327   2.230       .  S
C316        O322   1.261       .  A
C316        O324   1.259       .  A
C316        C470   1.479       .  S
O317        C857   1.261       .  A
O318       In581   2.255   1_455  S
O318        C325   1.262       .  A
C319        O858   1.260       .  A
C319        O320   1.259       .  A
C319        C358   1.482       .  S
C321        O323   1.263       .  A
C321        O859   1.258   1_455  A
C321        C441   1.489       .  S
O323       In847   2.260   1_455  S
C325        O849   1.261       .  A
C325        C390   1.488       .  S
O326       In847   2.256       .  S
O326        C851   1.260       .  A
O327        C853   1.258       .  A
In328       O597   2.263   1_565  S
In328       O605   2.229   1_565  S
In328       O335   2.251       .  S
In328       O868   2.266       .  S
In328       O337   2.213       .  S
In328       O340   2.246       .  S
C329        O335   1.263       .  A
C329        O337   1.262       .  A
C329        C345   1.479       .  S
O330        C870   1.258       .  A
O331       In594   2.264   1_455  S
O331        C338   1.262       .  A
C332        O871   1.260       .  A
C332        O333   1.263       .  A
C332        C486   1.486       .  S
C334        O336   1.261       .  A
C334        O872   1.257   1_455  A
C334        C454   1.476       .  S
O336       In860   2.266   1_455  S
C338        O862   1.258   1_455  A
C338        C374   1.483       .  S
O339       In594   2.229       .  S
O339        C864   1.260       .  A
O340        C866   1.257       .  A
C341        C342   1.405       .  A
C341        C346   1.407       .  A
C341        H348   1.084       .  S
C342        C343   1.414       .  A
C343        C350   1.504       .  S
C343        C344   1.394       .  A
C344        C345   1.401       .  A
C344        H881   1.085       .  S
C345        C346   1.416       .  A
C346        C347   1.506       .  S
C347        H351   1.111       .  S
C347        H352   1.110       .  S
C347        H353   1.110       .  S
H349        C876   1.085       .  S
C350        H354   1.110       .  S
C350        H355   1.100       .  S
C350        H888   1.111       .  S
H356        C882   1.111       .  S
C357        C358   1.402       .  A
C357        C362   1.404       .  A
C357        H364   1.085       .  S
C358        C359   1.415       .  A
C359        C366   1.507       .  S
C359        C360   1.407       .  A
C360        C361   1.406       .  A
C360        H365   1.084       .  S
C361        C362   1.416       .  A
C362        C363   1.506       .  S
C363        H367   1.111       .  S
C363        H368   1.110   1_556  S
C363        H369   1.104   1_556  S
C366        H370   1.110       .  S
C366        H371   1.110       .  S
C366        H372   1.111       .  S
C373        C374   1.406       .  A
C373        C378   1.407       .  A
C373        H380   1.084       .  S
C374        C375   1.417       .  A
C375        C914   1.508       .  S
C375        C376   1.404       .  A
C376        C377   1.399       .  A
C376        H381   1.083       .  S
C377        C378   1.409       .  A
C378        C379   1.505       .  S
C379        H383   1.110       .  S
C379        H384   1.110       .  S
C379        H385   1.109   1_554  S
C382        C907   1.508       .  S
C382        H386   1.110       .  S
C382        H387   1.110       .  S
C382        H388   1.111       .  S
C389        C390   1.405       .  A
C389        C394   1.400       .  A
C389        H396   1.084       .  S
C390        C391   1.420       .  A
C391        C398   1.506       .  S
C391        C392   1.408       .  A
C392        C393   1.401       .  A
C392        H397   1.084       .  S
C393        C394   1.411       .  A
C394        C395   1.505       .  S
C395        H399   1.111       .  S
C395        H400   1.109       .  S
C395        H401   1.106       .  S
C405        C938   1.401   1_554  A
C405        C410   1.399       .  A
C405        H412   1.082       .  S
C406        C937   1.401   1_456  A
C406        C407   1.417       .  A
C407        C414   1.506       .  S
C407        C940   1.397   1_455  A
C408        C939   1.397       .  A
C408        C409   1.400       .  A
C408        H413   1.084       .  S
C409        C410   1.417   1_556  A
C410        C411   1.510       .  S
C411        H415   1.111       .  S
C411        H416   1.106       .  S
C411        H417   1.108       .  S
C414        H418   1.100       .  S
C414        H419   1.110       .  S
C414        H420   1.111       .  S
C421        C422   1.405   1_556  A
C421        C426   1.402       .  A
C421        H428   1.075       .  S
C422        C423   1.428       .  A
C423        C430   1.515       .  S
C423        C424   1.403       .  A
C424        C425   1.407   1_554  A
C424        H429   1.076       .  S
C425        C426   1.427       .  A
C426        C427   1.512       .  S
C427        H431   1.111       .  S
C427        H432   1.111       .  S
C427        H433   1.098       .  S
C430        H434   1.100       .  S
C430        H435   1.111       .  S
C430        H436   1.111       .  S
C437        C438   1.400       .  A
C437        C442   1.402       .  A
C437        H444   1.084       .  S
C438        C439   1.415       .  A
C439        C446   1.508       .  S
C439        C440   1.404       .  A
C440        C441   1.407       .  A
C440        H445   1.084       .  S
C441        C442   1.420       .  A
C442        C975   1.509   1_455  S
C443        C974   1.509       .  S
C443        H447   1.111       .  S
C443        H448   1.110       .  S
C443        H981   1.110       .  S
C446        H450   1.110       .  S
C446        H451   1.105       .  S
C446        H452   1.111       .  S
H449        C975   1.110       .  S
C453        C454   1.400       .  A
C453        C458   1.405       .  A
C453        H460   1.084       .  S
C454        C455   1.413       .  A
C455        C462   1.507       .  S
C455        C456   1.405       .  A
C456        C457   1.403       .  A
C456        H461   1.083       .  S
C457        C458   1.413       .  A
C458        C459   1.503       .  S
C459        H463   1.110       .  S
C459        H464   1.109       .  S
C459        H465   1.107       .  S
C462        H466   1.111       .  S
C462        H467   1.110       .  S
C462        H468   1.111       .  S
C469        C470   1.402       .  A
C469        C474   1.406       .  A
C469        H476   1.084       .  S
C470        C471   1.413       .  A
C471       C1010   1.508       .  S
C471        C472   1.402       .  A
C472        C473   1.404       .  A
C472        H477   1.084       .  S
C473        C474   1.419       .  A
C474        C475   1.509       .  S
C475        H479   1.111       .  S
C475        H480   1.107       .  S
C475        H481   1.109       .  S
C478       C1003   1.508       .  S
C478        H482   1.110       .  S
C478        H483   1.110       .  S
C478        H484   1.111       .  S
C485        C486   1.407       .  A
C485        C490   1.405       .  A
C485        H492   1.084       .  S
C486        C487   1.419       .  A
C487       C1026   1.508       .  S
C487        C488   1.402       .  A
C488        C489   1.400       .  A
C488        H493   1.085       .  S
C489        C490   1.412       .  A
C490        C491   1.507       .  S
C491        H495   1.111       .  S
C491        H496   1.108       .  S
C491        H497   1.110       .  S
C494       C1019   1.508   1_455  S
C494        H498   1.110       .  S
C494        H499   1.110       .  S
C494        H500   1.111       .  S
C501        C502   1.403       .  A
C501       C1038   1.403   1_455  A
C501        H508   1.084       .  S
C502       C1035   1.412   1_455  A
C503        C510   1.504       .  S
C503       C1034   1.412       .  A
C503        C504   1.401       .  A
C504        C505   1.401       .  A
C504        H509   1.085       .  S
C505        C506   1.413       .  A
C506        C507   1.507       .  S
C506       C1033   1.403       .  A
C507       H1043   1.111       .  S
C507        H512   1.107       .  S
C507        H513   1.109       .  S
C510       H1046   1.109       .  S
C510        H515   1.107       .  S
C510        H516   1.111       .  S
H511       C1039   1.111   1_455  S
H514       C1042   1.109       .  S
C517        C518   1.408       .  A
C517        C522   1.404       .  A
C517        H524   1.076       .  S
C518        C519   1.427       .  A
C519        C526   1.515       .  S
C519        C520   1.403       .  A
C520        C521   1.408       .  A
C520        H525   1.075       .  S
C521        C522   1.426       .  A
C522        C523   1.515       .  S
C523        H527   1.110       .  S
C523        H528   1.101       .  S
C523        H529   1.111       .  S
C526        H530   1.111       .  S
C526        H531   1.101       .  S
C526        H532   1.111       .  S
C533        C534   1.542       .  S
C533        C539   1.540       .  S
C533        C537   1.556       .  S
C533        C787   1.543       .  S
C534        H541   1.085       .  S
C534        C535   1.365       .  D
C535        C536   1.533       .  S
C535        C755   1.481       .  S
C536        C540   1.526       .  S
C536        C538   1.532       .  S
C536        H542   1.110       .  S
C537        H543   1.077       .  S
C537        C538   1.368       .  D
C538        C739   1.489       .  S
C539        H544   1.086       .  S
C539        C540   1.361       .  D
C540        C771   1.477       .  S
C545        C546   1.557       .  S
C545        C551   1.538       .  S
C545        C549   1.542       .  S
C545        C784   1.542       .  S
C546        H553   1.080       .  S
C546        C547   1.367       .  D
C547        C548   1.533       .  S
C547        C723   1.486       .  S
C548        C552   1.534       .  S
C548        C550   1.534       .  S
C548        H554   1.111       .  S
C549        H555   1.086       .  S
C549        C550   1.363       .  D
C550        C704   1.482       .  S
C551        H556   1.087       .  S
C551        C552   1.362       .  D
C552        C768   1.479       .  S
C557        C558   1.555   1_556  S
C557        C563   1.539       .  S
C557        C561   1.545       .  S
C557        C691   1.542       .  S
C558        H565   1.081       .  S
C558        C559   1.365       .  D
C559        C560   1.531   1_554  S
C559        C643   1.479       .  S
C560        C564   1.534       .  S
C560        C562   1.531       .  S
C560        H566   1.111       .  S
C561        H567   1.086       .  S
C561        C562   1.365       .  D
C562        C659   1.482       .  S
C563        H568   1.087   1_556  S
C563        C564   1.362       .  D
C564        C672   1.481       .  S
C569        C570   1.544       .  S
C569        C575   1.534       .  S
C569        C573   1.557   1_554  S
C569        C688   1.539       .  S
C570        H577   1.086       .  S
C570        C571   1.365       .  D
C571        C572   1.534       .  S
C571        C608   1.484       .  S
C572        C576   1.534       .  S
C572        C574   1.535   1_554  S
C572        H578   1.111       .  S
C573        H579   1.080       .  S
C573        C574   1.369       .  D
C574        C627   1.492       .  S
C575        H580   1.083   1_554  S
C575        C576   1.357       .  D
C576        C675   1.479   1_554  S
In581       O849   2.231   1_655  S
In581       O586   2.253       .  S
In581       O854   2.255       .  S
In581       O856   2.242       .  S
In581       O593   2.230   1_655  S
C582        O588   1.261       .  A
C582        O590   1.259       .  A
C582        C736   1.479       .  S
O583       In847   2.231   1_445  S
O584        C591   1.262       .  A
C585        O586   1.260       .  A
C585        C624   1.482       .  S
C587        O589   1.263       .  A
C587        C707   1.489       .  S
O588       In847   2.255   1_545  S
O590       In847   2.242   1_545  S
C591        C656   1.488       .  S
In594       O862   2.241       .  S
In594       O865   2.250       .  S
In594       O601   2.250       .  S
In594       O603   2.213       .  S
In594       O606   2.245       .  S
C595        O601   1.263       .  A
C595        O603   1.262       .  A
C595        C611   1.479       .  S
O596       In860   2.241   1_545  S
O597        C604   1.262       .  A
C598        O599   1.263       .  A
C598        C752   1.485       .  S
O599       In860   2.250   1_545  S
C600        O602   1.261       .  A
C600        C720   1.476       .  S
C604        C640   1.483       .  S
C607        C608   1.405       .  A
C607        C612   1.408       .  A
C607        H614   1.084       .  S
C608        C609   1.414       .  A
C609        C616   1.504       .  S
C609        C610   1.394       .  A
C610        C611   1.401       .  A
C611        C612   1.416       .  A
C612        C613   1.506       .  S
C613        H617   1.111       .  S
C613        H618   1.110       .  S
C613        H619   1.110       .  S
C616        H620   1.110       .  S
C616        H621   1.099       .  S
C623        C624   1.402       .  A
C623        C628   1.404       .  A
C623        H630   1.085       .  S
C624        C625   1.415       .  A
C625        C632   1.507       .  S
C625        C626   1.407       .  A
C626        C627   1.406       .  A
C626        H631   1.084       .  S
C627        C628   1.416       .  A
C628        C629   1.506       .  S
C629        H633   1.111       .  S
C629        H634   1.110   1_556  S
C629        H635   1.104   1_556  S
C632        H636   1.110       .  S
C632        H637   1.110       .  S
C632        H638   1.111       .  S
C639        C640   1.406       .  A
C639        C644   1.406       .  A
C639        H646   1.084       .  S
C640        C641   1.417       .  A
C641        C642   1.404       .  A
C642        C643   1.399       .  A
C642        H647   1.083       .  S
C643        C644   1.409       .  A
C644        C645   1.505       .  S
C645        H649   1.110       .  S
C645        H650   1.110       .  S
C645        H651   1.109   1_554  S
C648        H652   1.110       .  S
C648        H653   1.110   1_455  S
C648        H654   1.111       .  S
C655        C656   1.405       .  A
C655        C660   1.400       .  A
C655        H662   1.084       .  S
C656        C657   1.420       .  A
C657        C664   1.506       .  S
C657        C658   1.408       .  A
C658        C659   1.401       .  A
C658        H663   1.084       .  S
C659        C660   1.411       .  A
C660        C661   1.505       .  S
C661        H665   1.111       .  S
C661        H666   1.109       .  S
C661        H667   1.106       .  S
C664        H934   1.110       .  S
C664        H935   1.110   1_545  S
C664        H936   1.111       .  S
H668        C930   1.110       .  S
H669        C930   1.110       .  S
H670        C930   1.111       .  S
C671        C676   1.399       .  A
C671        H678   1.082   1_655  S
C672        C673   1.417       .  A
C673        C680   1.506       .  S
C674        C675   1.400       .  A
C674        H679   1.084       .  S
C675        C676   1.417   1_556  A
C676        C677   1.510       .  S
C677        H681   1.111       .  S
C677        H682   1.106       .  S
C677        H683   1.108       .  S
C680        H684   1.100       .  S
C680        H685   1.110       .  S
C680        H686   1.111       .  S
C687        C688   1.405   1_556  A
C687        C692   1.402       .  A
C687        H694   1.076       .  S
C688        C689   1.428       .  A
C689        C696   1.514       .  S
C689        C690   1.403       .  A
C690        C691   1.407   1_554  A
C690        H695   1.076       .  S
C691        C692   1.427       .  A
C692        C693   1.512       .  S
C693        H697   1.111       .  S
C693        H698   1.111       .  S
C693        H699   1.098       .  S
C696        H700   1.100       .  S
C696        H701   1.111       .  S
C696        H702   1.111       .  S
C703        C704   1.401       .  A
C703        C708   1.402       .  A
C703        H710   1.084       .  S
C704        C705   1.415       .  A
C705        C712   1.508       .  S
C705        C706   1.404       .  A
C706        C707   1.407       .  A
C706        H711   1.084       .  S
C707        C708   1.420       .  A
C709        H713   1.111       .  S
C709        H714   1.110       .  S
C712        H716   1.110       .  S
C712        H717   1.105       .  S
C712        H718   1.111       .  S
C719        C720   1.400       .  A
C719        C724   1.405       .  A
C719        H726   1.084       .  S
C720        C721   1.413       .  A
C721        C728   1.507       .  S
C721        C722   1.405       .  A
C722        C723   1.403       .  A
C722        H727   1.083       .  S
C723        C724   1.414       .  A
C724        C725   1.503       .  S
C725        H729   1.110       .  S
C725        H730   1.109       .  S
C725        H731   1.107       .  S
C728        H732   1.111       .  S
C728        H733   1.110       .  S
C728        H734   1.111       .  S
C735        C736   1.402       .  A
C735        C740   1.406       .  A
C735        H742   1.084       .  S
C736        C737   1.413       .  A
C737        C738   1.402       .  A
C738        C739   1.404       .  A
C738        H743   1.084       .  S
C739        C740   1.419       .  A
C740        C741   1.509       .  S
C741        H745   1.111       .  S
C741        H746   1.107       .  S
C741        H747   1.109       .  S
C744        H748   1.110   1_545  S
C744        H749   1.110       .  S
C744        H750   1.111       .  S
C751        C752   1.407       .  A
C751        C756   1.405       .  A
C751        H758   1.084       .  S
C752        C753   1.419       .  A
C753        C754   1.402       .  A
C754        C755   1.400       .  A
C754        H759   1.085       .  S
C755        C756   1.412       .  A
C756        C757   1.507       .  S
C757        H761   1.111       .  S
C757        H762   1.108       .  S
C757        H763   1.110       .  S
C760        H764   1.110       .  S
C760        H765   1.110       .  S
C760        H766   1.111       .  S
C767        C768   1.403       .  A
C767        H774   1.084       .  S
C769        C776   1.504   1_655  S
C769        C770   1.401       .  A
C770        C771   1.401       .  A
C770        H775   1.085       .  S
C771        C772   1.413       .  A
C772        C773   1.507       .  S
C773        H778   1.107       .  S
C773        H779   1.109       .  S
C776        H781   1.107       .  S
C776        H782   1.111   1_455  S
C783        C784   1.408       .  A
C783        C788   1.405       .  A
C783        H790   1.076       .  S
C784        C785   1.427       .  A
C785        C792   1.515       .  S
C785        C786   1.403       .  A
C786        C787   1.408       .  A
C786        H791   1.075       .  S
C787        C788   1.426       .  A
C788        C789   1.514       .  S
C789        H793   1.111       .  S
C789        H794   1.101       .  S
C789        H795   1.111       .  S
C792        H796   1.111       .  S
C792        H797   1.101       .  S
C792        H798   1.111       .  S
C799        C800   1.542       .  S
C799        C805   1.540       .  S
C799        C803   1.556       .  S
C799       C1053   1.543       .  S
C800        H807   1.085       .  S
C800        C801   1.365       .  D
C801        C802   1.533       .  S
C801       C1021   1.482       .  S
C802        C806   1.526       .  S
C802        C804   1.533       .  S
C802        H808   1.110       .  S
C803        H809   1.077       .  S
C803        C804   1.368       .  D
C804       C1005   1.489       .  S
C805        H810   1.086       .  S
C805        C806   1.360       .  D
C806       C1037   1.477       .  S
C811        C812   1.557       .  S
C811        C817   1.538       .  S
C811        C815   1.542       .  S
C811       C1050   1.542       .  S
C812        H819   1.080       .  S
C812        C813   1.367       .  D
C813        C814   1.533       .  S
C813        C989   1.486       .  S
C814        C818   1.534       .  S
C814        C816   1.534       .  S
C814        H820   1.111       .  S
C815        H821   1.086       .  S
C815        C816   1.363       .  D
C816        C970   1.482       .  S
C817        H822   1.087       .  S
C817        C818   1.362       .  D
C818       C1034   1.479       .  S
C823        C824   1.555   1_556  S
C823        C829   1.539       .  S
C823        C827   1.545       .  S
C823        C957   1.541       .  S
C824        H831   1.081       .  S
C824        C825   1.365       .  D
C825        C826   1.530   1_554  S
C825        C909   1.479       .  S
C826        C830   1.534       .  S
C826        C828   1.531       .  S
C826        H832   1.111       .  S
C827        H833   1.086       .  S
C827        C828   1.364       .  D
C828        C925   1.481       .  S
C829        H834   1.087   1_556  S
C829        C830   1.362       .  D
C830        C938   1.481       .  S
C835        C836   1.543       .  S
C835        C841   1.534       .  S
C835        C839   1.556   1_554  S
C835        C954   1.539       .  S
C836        H843   1.086       .  S
C836        C837   1.365       .  D
C837        C838   1.534       .  S
C837        C874   1.484       .  S
C838        C842   1.534       .  S
C838        C840   1.535   1_554  S
C838        H844   1.111       .  S
C839        H845   1.080       .  S
C839        C840   1.369       .  D
C840        C893   1.491       .  S
C841        H846   1.083   1_554  S
C841        C842   1.358       .  D
C842        C941   1.479   1_554  S
In847       O852   2.253       .  S
In847       O859   2.230       .  S
C848        O854   1.261       .  A
C848        O856   1.259       .  A
C848       C1002   1.479       .  S
O850        C857   1.262       .  A
C851        O852   1.259       .  A
C851        C890   1.482       .  S
C853        O855   1.263       .  A
C853        C973   1.489       .  S
C857        C922   1.488       .  S
In860       O867   2.251       .  S
In860       O869   2.213       .  S
In860       O872   2.246       .  S
C861        O867   1.263       .  A
C861        O869   1.262       .  A
C861        C877   1.479       .  S
O863        C870   1.262       .  A
C864        O865   1.263       .  A
C864       C1018   1.486       .  S
C866        O868   1.261       .  A
C866        C986   1.476       .  S
C870        C906   1.483       .  S
C873        C874   1.405       .  A
C873        C878   1.407       .  A
C873        H880   1.084       .  S
C874        C875   1.414       .  A
C875        C882   1.504       .  S
C875        C876   1.394       .  A
C876        C877   1.401       .  A
C877        C878   1.416       .  A
C878        C879   1.506       .  S
C879        H883   1.111       .  S
C879        H884   1.110       .  S
C879        H885   1.110       .  S
C882        H886   1.110       .  S
C882        H887   1.100       .  S
C889        C890   1.402       .  A
C889        C894   1.404       .  A
C889        H896   1.085       .  S
C890        C891   1.415       .  A
C891        C898   1.507       .  S
C891        C892   1.407       .  A
C892        C893   1.406       .  A
C892        H897   1.084       .  S
C893        C894   1.416       .  A
C894        C895   1.506       .  S
C895        H899   1.111       .  S
C895        H900   1.110   1_556  S
C895        H901   1.104   1_556  S
C898        H902   1.110       .  S
C898        H903   1.110       .  S
C898        H904   1.111       .  S
C905        C906   1.406       .  A
C905        C910   1.406       .  A
C905        H912   1.084       .  S
C906        C907   1.417       .  A
C907        C908   1.404       .  A
C908        C909   1.399       .  A
C908        H913   1.083       .  S
C909        C910   1.409       .  A
C910        C911   1.505       .  S
C911        H915   1.110       .  S
C911        H916   1.110       .  S
C911        H917   1.109   1_554  S
C914        H918   1.110       .  S
C914        H919   1.110   1_455  S
C914        H920   1.111       .  S
C921        C922   1.405       .  A
C921        C926   1.400       .  A
C921        H928   1.084       .  S
C922        C923   1.420       .  A
C923        C930   1.506       .  S
C923        C924   1.408       .  A
C924        C925   1.401       .  A
C924        H929   1.084       .  S
C925        C926   1.411       .  A
C926        C927   1.505       .  S
C927        H931   1.111       .  S
C927        H932   1.109       .  S
C927        H933   1.106       .  S
C937        C942   1.399       .  A
C937        H944   1.082   1_655  S
C938        C939   1.417       .  A
C939        C946   1.506       .  S
C940        C941   1.400       .  A
C940        H945   1.084       .  S
C941        C942   1.417   1_556  A
C942        C943   1.510       .  S
C943        H947   1.111       .  S
C943        H948   1.106       .  S
C943        H949   1.108       .  S
C946        H950   1.100       .  S
C946        H951   1.110       .  S
C946        H952   1.111       .  S
C953        C954   1.405   1_556  A
C953        C958   1.402       .  A
C953        H960   1.075       .  S
C954        C955   1.428       .  A
C955        C962   1.515       .  S
C955        C956   1.403       .  A
C956        C957   1.407   1_554  A
C956        H961   1.076       .  S
C957        C958   1.427       .  A
C958        C959   1.512       .  S
C959        H963   1.111       .  S
C959        H964   1.111       .  S
C959        H965   1.098       .  S
C962        H966   1.100       .  S
C962        H967   1.111       .  S
C962        H968   1.111       .  S
C969        C970   1.400       .  A
C969        C974   1.402       .  A
C969        H976   1.084       .  S
C970        C971   1.415       .  A
C971        C978   1.508       .  S
C971        C972   1.404       .  A
C972        C973   1.407       .  A
C972        H977   1.084       .  S
C973        C974   1.420       .  A
C975        H979   1.111       .  S
C975        H980   1.110       .  S
C978        H982   1.110       .  S
C978        H983   1.105       .  S
C978        H984   1.111       .  S
C985        C986   1.400       .  A
C985        C990   1.405       .  A
C985        H992   1.084       .  S
C986        C987   1.413       .  A
C987        C994   1.507       .  S
C987        C988   1.405       .  A
C988        C989   1.403       .  A
C988        H993   1.083       .  S
C989        C990   1.413       .  A
C990        C991   1.503       .  S
C991        H995   1.110       .  S
C991        H996   1.109       .  S
C991        H997   1.107       .  S
C994        H998   1.111       .  S
C994        H999   1.110       .  S
C994       H1000   1.111       .  S
C1001      C1002   1.402       .  A
C1001      C1006   1.406       .  A
C1001      H1008   1.084       .  S
C1002      C1003   1.413       .  A
C1003      C1004   1.402       .  A
C1004      C1005   1.404       .  A
C1004      H1009   1.084       .  S
C1005      C1006   1.419       .  A
C1006      C1007   1.509       .  S
C1007      H1011   1.111       .  S
C1007      H1012   1.107       .  S
C1007      H1013   1.109       .  S
C1010      H1014   1.110       .  S
C1010      H1015   1.110       .  S
C1010      H1016   1.111       .  S
C1017      C1018   1.407       .  A
C1017      C1022   1.405       .  A
C1017      H1024   1.084       .  S
C1018      C1019   1.419       .  A
C1019      C1020   1.402       .  A
C1020      C1021   1.400       .  A
C1020      H1025   1.085       .  S
C1021      C1022   1.412       .  A
C1022      C1023   1.507       .  S
C1023      H1027   1.111       .  S
C1023      H1028   1.108       .  S
C1023      H1029   1.110       .  S
C1026      H1030   1.110       .  S
C1026      H1031   1.110       .  S
C1026      H1032   1.111       .  S
C1033      C1034   1.403       .  A
C1033      H1040   1.085       .  S
C1035      C1042   1.504   1_655  S
C1035      C1036   1.401       .  A
C1036      C1037   1.401       .  A
C1036      H1041   1.085       .  S
C1037      C1038   1.413       .  A
C1038      C1039   1.507       .  S
C1039      H1044   1.107       .  S
C1039      H1045   1.109       .  S
C1042      H1047   1.107       .  S
C1042      H1048   1.111   1_455  S
C1049      C1050   1.408       .  A
C1049      C1054   1.404       .  A
C1049      H1056   1.076       .  S
C1050      C1051   1.427       .  A
C1051      C1058   1.515       .  S
C1051      C1052   1.403       .  A
C1052      C1053   1.408       .  A
C1052      H1057   1.075       .  S
C1053      C1054   1.426       .  A
C1054      C1055   1.515       .  S
C1055      H1059   1.110       .  S
C1055      H1060   1.101       .  S
C1055      H1061   1.111       .  S
C1058      H1062   1.111       .  S
C1058      H1063   1.101       .  S
C1058      H1064   1.111       .  S
