geometry optimzed in LAMMPS
_audit_creation_date              2020-11-30 
_audit_creation_method            'lammps2cif' 
_symmetry_space_group_name_H-M    'P1' 
_symmetry_Int_Tables_number       1 
_symmetry_cell_setting            triclinic 
loop_ 
_symmetry_equiv_pos_as_xyz 
  x,y,z 
_cell_length_a                    52.86006419 
_cell_length_b                    52.98274872835978 
_cell_length_c                    52.84801270891083 
_cell_angle_alpha                 90.38953083293178 
_cell_angle_beta                  90.19893228924013 
_cell_angle_gamma                 90.1645374683298 
loop_ 
_atom_site_label 
_atom_site_type_symbol 
_atom_site_fract_x 
_atom_site_fract_y 
_atom_site_fract_z 
_atom_site_charge 
O1          O  0.88333669  0.36495554  0.83445651    -0.82500
C2          C  0.83563687  0.28035201  0.87922236     0.96800
O3          O  0.83284505  0.28816784  0.85697229    -0.71700
O4          O  0.82071361  0.33460821  0.85924585    -0.75300
Al5        Al  0.84485956  0.31734039  0.84034235     1.49000
C6          C  0.82150103  0.35672614  0.86785744     0.92100
O7          O  0.87005245  0.35407477  0.90465903    -0.81500
O8          O  0.91741544  0.31199465  0.86667035    -0.75000
Al9        Al  0.87617472  0.35763047  0.86927595     1.90100
O10         O  0.88886546  0.31764785  0.90983607    -0.74100
O11         O  0.88519854  0.27732940  0.84999183    -0.74000
O12         O  0.85514143  0.28599993  0.89187118    -0.79600
O13         O  0.86686665  0.29833194  0.81944560    -0.77800
O14         O  0.86897585  0.32513162  0.86258111    -1.13900
O15         O  0.85076238  0.34481680  0.81833162    -0.73100
C16         C  0.86939913  0.35938959  0.81579952     0.97600
C17         C  0.87843937  0.33706495  0.91899524     0.94000
Al18       Al  0.88543602  0.30038865  0.87822905     1.55600
O19         O  0.84165428  0.36959961  0.86712608    -0.77800
C20         C  0.87917297  0.27941042  0.82691652     0.98100
C21         C  0.92628639  0.33404585  0.86921138     0.93000
O22         O  0.91179560  0.35253438  0.87342247    -0.83100
O23         O  0.65527510  0.15955518  0.89651233    -0.82500
C24         C  0.73723044  0.12356715  0.83871928     0.96800
O25         O  0.72980461  0.14601024  0.84065016    -0.71700
O26         O  0.68237951  0.14267586  0.82885373    -0.75300
Al27       Al  0.69991739  0.15908571  0.85521006     1.49000
C28         C  0.65949614  0.13617543  0.82961899     0.92100
O29         O  0.66617884  0.09085302  0.87444794    -0.81500
O30         O  0.71119287  0.12372537  0.92285365    -0.75000
Al31       Al  0.66254883  0.12575558  0.88464957     1.90100
O32         O  0.70468113  0.08490062  0.88892487    -0.74100
O33         O  0.74267270  0.14630567  0.89160719    -0.74000
O34         O  0.73300161  0.10804767  0.85615303    -0.79600
O35         O  0.71839560  0.17768798  0.87982265    -0.77800
O36         O  0.69428405  0.13379667  0.87641789    -1.13900
O37         O  0.67123735  0.17887660  0.86386144    -0.73100
C38         C  0.65834434  0.17938638  0.88375938     0.97600
C39         C  0.68434656  0.07624483  0.87973599     0.94000
Al40       Al  0.72066051  0.11711832  0.88899479     1.55600
O41         O  0.64861677  0.13217748  0.85069867    -0.77800
C42         C  0.73859451  0.16981426  0.88982769     0.98100
C43         C  0.68989038  0.12048111  0.93308301     0.93000
O44         O  0.67010560  0.11808647  0.91963233    -0.83100
O45         O  0.84241689  0.12174371  0.63517311    -0.82500
C46         C  0.87067991  0.17327592  0.72092779     0.96800
O47         O  0.85695132  0.17548225  0.70154565    -0.71700
O48         O  0.84302718  0.16887429  0.65462424    -0.75300
Al49       Al  0.83897844  0.14955871  0.68506708     1.49000
C50         C  0.86335373  0.17440784  0.64345137     0.92100
O51         O  0.91289685  0.12258100  0.65770168    -0.81500
O52         O  0.89077735  0.08785588  0.69449766    -0.75000
Al53       Al  0.87669393  0.12294009  0.65017879     1.90100
O54         O  0.91371902  0.13487611  0.69720190    -0.74100
O55         O  0.85491441  0.10504183  0.72384660    -0.74000
O56         O  0.87899638  0.15181763  0.72747820    -0.79600
O57         O  0.82823474  0.13540476  0.71614244    -0.77800
O58         O  0.86638948  0.13083711  0.68134691    -1.13900
O59         O  0.81877205  0.12504928  0.66904002    -0.73100
C60         C  0.82086347  0.12039393  0.64578978     0.97600
C61         C  0.92501127  0.13105467  0.67667453     0.94000
Al62       Al  0.88333609  0.12066034  0.70841894     1.55600
O63         O  0.88096715  0.15828792  0.64196962    -0.77800
C64         C  0.83429350  0.11594021  0.72826888     0.98100
C65         C  0.88272884  0.07555529  0.67536938     0.93000
O66         O  0.87369467  0.08713806  0.65640181    -0.83100
O67         O  0.62016470  0.33962978  0.86648126    -0.82500
C68         C  0.67064792  0.37665332  0.78052190     0.96800
O69         O  0.67258634  0.35517048  0.79024736    -0.71700
O70         O  0.68409156  0.36391396  0.83657206    -0.75300
Al71       Al  0.66050940  0.34251083  0.82131724     1.49000
C72         C  0.68272571  0.37345571  0.85833723     0.92100
O73         O  0.63386767  0.40897269  0.85123564    -0.81500
O74         O  0.58761242  0.36818408  0.81055474    -0.75000
Al75       Al  0.62775020  0.37400207  0.85731315     1.90100
O76         O  0.61732939  0.41138809  0.81316643    -0.74100
O77         O  0.62078735  0.34676533  0.77922358    -0.74000
O78         O  0.65124422  0.38986558  0.78434574    -0.79600
O79         O  0.63864040  0.31949502  0.80485469    -0.77800
O80         O  0.63600474  0.36494079  0.82585184    -1.13900
O81         O  0.65529492  0.32386815  0.85175527    -0.73100
C82         C  0.63526302  0.32134101  0.86426711     0.97600
C83         C  0.62639856  0.42203676  0.83274508     0.94000
Al84       Al  0.62037317  0.37795227  0.79904635     1.55600
O85         O  0.66217340  0.37317092  0.87063249    -0.77800
C86         C  0.62672205  0.32419417  0.78467237     0.98100
C87         C  0.57819120  0.37203832  0.83218671     0.93000
O88         O  0.59231313  0.37738820  0.85080510    -0.83100
O89         O  0.85156785  0.37879811  0.65415023    -0.82500
C90         C  0.75784200  0.34299940  0.61650508     0.96800
O91         O  0.76616780  0.33990365  0.63864312    -0.71700
O92         O  0.81048065  0.32047704  0.63314963    -0.75300
Al93       Al  0.79839264  0.34749478  0.65276367     1.49000
C94         C  0.83234533  0.31760567  0.62426991     0.92100
O95         O  0.83133932  0.36722599  0.58529294    -0.81500
O96         O  0.79919770  0.41906913  0.62754565    -0.75000
Al97       Al  0.83945108  0.37294034  0.62022320     1.90100
O98         O  0.79807960  0.39169506  0.58368623    -0.74100
O99         O  0.76236974  0.39151334  0.64591154    -0.74000
O100        O  0.76494907  0.36133979  0.60329345    -0.79600
O101        O  0.78488273  0.37246634  0.67486721    -0.77800
O102        O  0.80717995  0.37001417  0.62977856    -1.13900
O103        O  0.82868000  0.34929754  0.67186710    -0.73100
C104        C  0.84710240  0.36437160  0.67252046     0.97600
C105        C  0.81435126  0.37821691  0.57269980     0.94000
Al106      Al  0.78324769  0.38942556  0.61626340     1.55600
O107        O  0.84703749  0.33649598  0.62176935    -0.77800
C108        C  0.76638210  0.38623733  0.66886175     0.98100
C109        C  0.82154890  0.42594043  0.62288022     0.93000
O110        O  0.83822047  0.40973029  0.61673823    -0.83100
O111        O  0.65955982  0.14079860  0.61947732    -0.82500
C112        C  0.62708274  0.23233939  0.66596809     0.96800
O113        O  0.64845401  0.22203501  0.66777104    -0.71700
O114        O  0.64355614  0.17625533  0.68346182    -0.75300
Al115      Al  0.66120409  0.19048905  0.65613550     1.49000
C116        C  0.63639094  0.15365675  0.68462672     0.92100
O117        O  0.59229475  0.15929150  0.63906175    -0.81500
O118        O  0.62913906  0.19465562  0.58566566    -0.75000
Al119      Al  0.62641647  0.15178206  0.62951099     1.90100
O120        O  0.58888981  0.19490411  0.61828540    -0.74100
O121        O  0.65165314  0.22869549  0.61386722    -0.74000
O122        O  0.61239474  0.22671267  0.64794235    -0.79600
O123        O  0.68132437  0.20555895  0.63103254    -0.77800
O124        O  0.63640200  0.18373664  0.63441220    -1.13900
O125        O  0.67997903  0.16048622  0.64997688    -0.73100
C126        C  0.67934169  0.14415470  0.63255530     0.97600
C127        C  0.57907494  0.17742005  0.63102606     0.94000
Al128      Al  0.62173862  0.20900183  0.61773662     1.55600
O129        O  0.63205837  0.14107267  0.66451744    -0.77800
C130        C  0.67473492  0.22394081  0.61756712     0.98100
C131        C  0.62404247  0.17267441  0.57784637     0.93000
O132        O  0.61901306  0.15537544  0.59356616    -0.83100
O133        O  0.12282581  0.16296698  0.64149037    -0.82500
C134        C  0.15999355  0.12321538  0.73429652     0.96800
O135        O  0.16420334  0.14426348  0.72432797    -0.71700
O136        O  0.18191166  0.13635449  0.67919818    -0.75300
Al137      Al  0.15657930  0.15758016  0.69188623     1.49000
C138        C  0.18335056  0.12880391  0.65659343     0.92100
O139        O  0.13199795  0.09303530  0.65496237    -0.81500
O140        O  0.08316187  0.13167779  0.69192866    -0.75000
Al141      Al  0.12797503  0.12827402  0.65031556     1.90100
O142        O  0.11279753  0.08893883  0.69151327    -0.74100
O143        O  0.11114057  0.15222121  0.72734902    -0.74000
O144        O  0.14200922  0.10958927  0.72645500    -0.79600
O145        O  0.13265772  0.18021508  0.70546159    -0.77800
O146        O  0.13263732  0.13559700  0.68313520    -1.13900
O147        O  0.15602944  0.17722040  0.66171247    -0.73100
C148        C  0.13875922  0.18023453  0.64560937     0.97600
C149        C  0.12262049  0.07925064  0.67189958     0.94000
Al150      Al  0.11376096  0.12169284  0.70717925     1.55600
O151        O  0.16408728  0.12903983  0.64208567    -0.77800
C152        C  0.11718487  0.17496094  0.72283691     0.98100
C153        C  0.07578243  0.12969623  0.66933876     0.93000
O154        O  0.09150260  0.12555424  0.65181782    -0.83100
O155        O  0.35478633  0.11348759  0.84480956    -0.82500
C156        C  0.27316291  0.16953073  0.88380326     0.96800
O157        O  0.28170502  0.16970401  0.86162636    -0.71700
O158        O  0.32901114  0.17983112  0.86733700    -0.75300
Al159      Al  0.31159032  0.15577325  0.84802530     1.49000
C160        C  0.35142645  0.17798734  0.87508843     0.92100
O161        O  0.34297966  0.12946030  0.91462238    -0.81500
O162        O  0.29764454  0.08585746  0.87619266    -0.75000
Al163      Al  0.34713625  0.12247244  0.87933166     1.90100
O164        O  0.30423720  0.11519483  0.91884913    -0.74100
O165        O  0.26719651  0.11963272  0.85583183    -0.74000
O166        O  0.27681608  0.15086257  0.89797647    -0.79600
O167        O  0.29334210  0.13346140  0.82680529    -0.77800
O168        O  0.31588135  0.13228284  0.87138625    -1.13900
O169        O  0.34080680  0.14838467  0.82826661    -0.73100
C170        C  0.35284450  0.12807580  0.82616198     0.97600
C171        C  0.32492565  0.12252583  0.92860883     0.94000
Al172      Al  0.28874611  0.11887666  0.88607789     1.55600
O173        O  0.36209460  0.15652572  0.87679806    -0.77800
C174        C  0.27266136  0.12309624  0.83269469     0.98100
C175        C  0.31850983  0.07470774  0.87902442     0.93000
O176        O  0.33852487  0.08717799  0.88364317    -0.83100
O177        O  0.16147979  0.35106529  0.88489179    -0.82500
C178        C  0.11406579  0.26733530  0.83650569     0.96800
O179        O  0.13576205  0.27624139  0.83251568    -0.71700
O180        O  0.13633515  0.32296744  0.81945714    -0.75300
Al181      Al  0.15371070  0.30482786  0.84472745     1.49000
C182        C  0.13249505  0.34636364  0.81993410     0.92100
O183        O  0.09138864  0.34355631  0.86615938    -0.81500
O184        O  0.12564101  0.30230649  0.91706625    -0.75000
Al185      Al  0.12652510  0.34623988  0.87514437     1.90100
O186        O  0.08400581  0.30781391  0.88605915    -0.74100
O187        O  0.14258127  0.26667979  0.88786354    -0.74000
O188        O  0.10187232  0.27343145  0.85596462    -0.79600
O189        O  0.17321753  0.28544757  0.86734959    -0.77800
O190        O  0.13163310  0.31346843  0.86841884    -1.13900
O191        O  0.17709977  0.33174958  0.85156669    -0.73100
C192        C  0.18025474  0.34474395  0.87145681     0.97600
C193        C  0.07626089  0.32658631  0.87363948     0.94000
Al194      Al  0.11493964  0.28969924  0.88539686     1.55600
O195        O  0.13249335  0.35822041  0.84084568    -0.77800
C196        C  0.16567867  0.26851142  0.88219815     0.98100
C197        C  0.12273262  0.32426027  0.92572330     0.93000
O198        O  0.11921634  0.34245763  0.91078806    -0.83100
O199        O  0.34374893  0.37975712  0.86073085    -0.82500
C200        C  0.38171792  0.33946097  0.76873524     0.96800
O201        O  0.35999262  0.33656019  0.77795650    -0.71700
O202        O  0.36521606  0.31934199  0.82306385    -0.75300
Al203      Al  0.34607008  0.34575788  0.80973217     1.49000
C204        C  0.37419335  0.31748060  0.84503916     0.92100
O205        O  0.41365601  0.36689125  0.84434941    -0.81500
O206        O  0.37440425  0.41708458  0.80850917    -0.75000
Al207      Al  0.37822431  0.37292303  0.85067278     1.90100
O208        O  0.41661323  0.38764806  0.80875707    -0.74100
O209        O  0.35466173  0.38902462  0.77310439    -0.74000
O210        O  0.39571551  0.35741018  0.77587496    -0.79600
O211        O  0.32467261  0.37045522  0.79476100    -0.77800
O212        O  0.36957836  0.36843116  0.81816034    -1.13900
O213        O  0.32628430  0.34861650  0.83966315    -0.73100
C214        C  0.32479079  0.36592133  0.85596942     0.97600
C215        C  0.42687167  0.37575709  0.82657054     0.94000
Al216      Al  0.38411723  0.38640402  0.79380001     1.55600
O217        O  0.37614881  0.33683283  0.85934344    -0.77800
C218        C  0.33153052  0.38417703  0.77651349     0.98100
C219        C  0.37740969  0.42499595  0.83083811     0.93000
O220        O  0.38217457  0.40958998  0.84853289    -0.83100
O221        O  0.14517203  0.34190447  0.61340855    -0.82500
C222        C  0.22825818  0.37693159  0.67100759     0.96800
O223        O  0.21842561  0.35535987  0.67123975    -0.71700
O224        O  0.17152087  0.36539535  0.67995370    -0.75300
Al225      Al  0.18780087  0.34381922  0.65700893     1.49000
C226        C  0.14884416  0.37198701  0.67739412     0.92100
O227        O  0.16174627  0.41136929  0.62839300    -0.81500
O228        O  0.20470317  0.36895929  0.58592198    -0.75000
Al229      Al  0.15504235  0.37606782  0.62172788     1.90100
O230        O  0.20095970  0.41204660  0.61483619    -0.74100
O231        O  0.23267586  0.34743552  0.62128146    -0.74000
O232        O  0.22617513  0.39064921  0.65169559    -0.79600
O233        O  0.20472128  0.32053340  0.63598620    -0.77800
O234        O  0.18553346  0.36637540  0.63248431    -1.13900
O235        O  0.15745868  0.32609736  0.64951491    -0.73100
C236        C  0.14554526  0.32397088  0.62902348     0.97600
C237        C  0.18133191  0.42361195  0.62201874     0.94000
Al238      Al  0.21380433  0.37879438  0.61936323     1.55600
O239        O  0.13912046  0.37435083  0.65543212    -0.77800
C240        C  0.22582894  0.32490858  0.62577864     0.98100
C241        C  0.18428435  0.37310953  0.57416774     0.93000
O242        O  0.16449019  0.37916431  0.58628737    -0.83100
O243        O  0.38670051  0.14184279  0.66387526    -0.82500
C244        C  0.33998236  0.22932671  0.62486011     0.96800
O245        O  0.33705201  0.21912373  0.64606379    -0.71700
O246        O  0.32330397  0.17300950  0.63912065    -0.75300
Al247      Al  0.34789905  0.18796028  0.65960621     1.49000
C248        C  0.32346305  0.15054973  0.63135203     0.92100
O249        O  0.37304944  0.15438457  0.59398032    -0.81500
O250        O  0.42027345  0.19486508  0.63338140    -0.75000
Al251      Al  0.37893214  0.14964284  0.62923914     1.90100
O252        O  0.39067235  0.19179509  0.59001201    -0.74100
O253        O  0.38924741  0.22807359  0.65353132    -0.74000
O254        O  0.35845835  0.22346462  0.61102627    -0.79600
O255        O  0.37084399  0.20387784  0.68169363    -0.77800
O256        O  0.37180576  0.18169632  0.63699008    -1.13900
O257        O  0.35219038  0.15807375  0.67933132    -0.73100
C258        C  0.37222132  0.14569908  0.68236415     0.97600
C259        C  0.38136799  0.17192319  0.58015498     0.94000
Al260      Al  0.38844916  0.20732798  0.62304402     1.55600
O261        O  0.34379403  0.13778002  0.63112030    -0.77800
C262        C  0.38364688  0.22322478  0.67634030     0.98100
C263        C  0.42906000  0.17290040  0.63102591     0.93000
O264        O  0.41465231  0.15458556  0.62557258    -0.83100
O265        O  0.36473991  0.84064408  0.88711571    -0.82500
C266        C  0.28129892  0.88165293  0.83366042     0.96800
O267        O  0.29233028  0.86091949  0.83080717    -0.71700
O268        O  0.33973895  0.86847670  0.82195098    -0.75300
Al269      Al  0.32239965  0.84716030  0.84416844     1.49000
C270        C  0.36274493  0.87408571  0.82442956     0.92100
O271        O  0.35447304  0.91108143  0.87538585    -0.81500
O272        O  0.30965168  0.87301538  0.91779010    -0.75000
Al273      Al  0.35818235  0.87559134  0.88017452     1.90100
O274        O  0.31483815  0.91516163  0.88769366    -0.74100
O275        O  0.27963912  0.85188171  0.88371422    -0.74000
O276        O  0.28501385  0.89462718  0.85339877    -0.79600
O277        O  0.30432519  0.82442307  0.86444458    -0.77800
O278        O  0.32662527  0.86873326  0.86975572    -1.13900
O279        O  0.35182872  0.82699216  0.85025622    -0.73100
C280        C  0.36275117  0.82305737  0.87103932     0.97600
C281        C  0.33584414  0.92479640  0.88143949     0.94000
Al282      Al  0.29964378  0.88255407  0.88449956     1.55600
O283        O  0.37322271  0.87400399  0.84615203    -0.77800
C284        C  0.28492480  0.82932575  0.87744798     0.98100
C285        C  0.33091228  0.87484494  0.92855453     0.93000
O286        O  0.35055099  0.87863396  0.91558619    -0.83100
O287        O  0.12371403  0.64504832  0.84394380    -0.82500
C288        C  0.17128208  0.73388457  0.88229573     0.96800
O289        O  0.17545481  0.72203791  0.86204095    -0.71700
O290        O  0.18586046  0.67589216  0.87336908    -0.75300
Al291      Al  0.16419979  0.69023187  0.84962841     1.49000
C292        C  0.18394928  0.65387287  0.88189539     0.92100
O293        O  0.12976498  0.66329213  0.91454806    -0.81500
O294        O  0.09060672  0.70327566  0.86827553    -0.75000
Al295      Al  0.12767585  0.65590256  0.87888136     1.90100
O296        O  0.11521195  0.70202693  0.91355857    -0.74100
O297        O  0.12499464  0.73213964  0.84947415    -0.74000
O298        O  0.15149288  0.72964296  0.89474622    -0.79600
O299        O  0.14426138  0.70523830  0.82425954    -0.77800
O300        O  0.13779492  0.68679976  0.87000521    -1.13900
O301        O  0.16048176  0.65910613  0.83171649    -0.73100
C302        C  0.14111061  0.64585137  0.82763669     0.97600
C303        C  0.12148829  0.68271089  0.92588132     0.94000
Al304      Al  0.12183569  0.71433734  0.88068933     1.55600
O305        O  0.16265822  0.64235804  0.88169953    -0.77800
C306        C  0.13122930  0.72491873  0.82748694     0.98100
C307        C  0.07909459  0.68276385  0.87143025     0.93000
O308        O  0.09123863  0.66324915  0.87815534    -0.83100
O309        O  0.15507276  0.88722295  0.64799996    -0.82500
C310        C  0.11898974  0.83740003  0.73521157     0.96800
O311        O  0.14118248  0.83649348  0.72652045    -0.71700
O312        O  0.13937093  0.82394238  0.67981045    -0.75300
Al313      Al  0.15597823  0.85011094  0.69693930     1.49000
C314        C  0.12857703  0.82344724  0.65862340     0.92100
O315        O  0.08658644  0.87135136  0.66490672    -0.81500
O316        O  0.12563035  0.91856079  0.70625867    -0.75000
Al317      Al  0.12159091  0.87882506  0.65891175     1.90100
O318        O  0.08347273  0.88953666  0.70192522    -0.74100
O319        O  0.14482110  0.88737684  0.73944137    -0.74000
O320        O  0.10454923  0.85556484  0.73027419    -0.79600
O321        O  0.17570302  0.87402947  0.71560018    -0.77800
O322        O  0.13118656  0.87187799  0.69074430    -1.13900
O323        O  0.17609160  0.85834469  0.66864693    -0.73100
C324        C  0.17522197  0.87531104  0.65218820     0.97600
C325        C  0.07322156  0.87916767  0.68300646     0.94000
Al326      Al  0.11594933  0.88662333  0.71702417     1.55600
O327        O  0.12401638  0.84374547  0.64675335    -0.77800
C328        C  0.16822185  0.88433811  0.73579801     0.98100
C329        C  0.12146687  0.92864639  0.68512748     0.93000
O330        O  0.11714893  0.91513266  0.66552056    -0.83100
O331        O  0.38687937  0.65897920  0.85429971    -0.82500
C332        C  0.32626059  0.62279464  0.77416250     0.96800
O333        O  0.32696072  0.64491759  0.78292749    -0.71700
O334        O  0.31916221  0.63971696  0.83050090    -0.75300
Al335      Al  0.34294926  0.65811953  0.81220042     1.49000
C336        C  0.32157574  0.62993448  0.85197413     0.92100
O337        O  0.36942343  0.58938644  0.84120476    -0.81500
O338        O  0.41143202  0.62798888  0.79512076    -0.75000
Al339      Al  0.37700226  0.62485185  0.84604881     1.90100
O340        O  0.38155659  0.58662551  0.80174939    -0.74100
O341        O  0.37668638  0.64852347  0.76680645    -0.74000
O342        O  0.34483054  0.60817203  0.77689787    -0.79600
O343        O  0.36496981  0.67884896  0.79264558    -0.77800
O344        O  0.36597764  0.63380020  0.81535971    -1.13900
O345        O  0.35246882  0.67734286  0.84112876    -0.73100
C346        C  0.37352452  0.67850636  0.85206384     0.97600
C347        C  0.37472238  0.57615118  0.82194245     0.94000
Al348      Al  0.37774250  0.61901146  0.78753650     1.55600
O349        O  0.34336031  0.62728633  0.86202603    -0.77800
C350        C  0.37434847  0.67178054  0.77178006     0.98100
C351        C  0.42367903  0.62509610  0.81542379     0.93000
O352        O  0.41215087  0.62053645  0.83594810    -0.83100
O353        O  0.33485612  0.86739061  0.61932481    -0.82500
C354        C  0.36964871  0.78116573  0.67207516     0.96800
O355        O  0.34849450  0.79170433  0.67335711    -0.71700
O356        O  0.35853831  0.83826219  0.68374899    -0.75300
Al357      Al  0.33685253  0.82247210  0.66029187     1.49000
C358        C  0.36769256  0.86011593  0.68183550     0.92100
O359        O  0.40403810  0.84991707  0.63124960    -0.81500
O360        O  0.36298585  0.80800676  0.58775001    -0.75000
Al361      Al  0.36897801  0.85655447  0.62615560     1.90100
O362        O  0.40598641  0.81083260  0.61753910    -0.74100
O363        O  0.34043426  0.77905175  0.62203285    -0.74000
O364        O  0.38341316  0.78406329  0.65285703    -0.79600
O365        O  0.31334748  0.80572023  0.63886791    -0.77800
O366        O  0.35941291  0.82563782  0.63560235    -1.13900
O367        O  0.31898504  0.85278157  0.65437229    -0.73100
C368        C  0.31728922  0.86673909  0.63536476     0.97600
C369        C  0.41692004  0.83103911  0.62441688     0.94000
Al370      Al  0.37211080  0.79785920  0.62114978     1.55600
O371        O  0.36905887  0.87087147  0.66044709    -0.77800
C372        C  0.31785603  0.78504869  0.62767480     0.98100
C373        C  0.36626728  0.82919297  0.57737818     0.93000
O374        O  0.37102523  0.84858230  0.59069538    -0.83100
O375        O  0.13886399  0.61796579  0.66271951    -0.82500
C376        C  0.22701614  0.66581941  0.62351052     0.96800
O377        O  0.21833291  0.66609980  0.64555925    -0.71700
O378        O  0.17196590  0.68079856  0.64173417    -0.75300
Al379      Al  0.18745267  0.65436815  0.65906040     1.49000
C380        C  0.14969009  0.68153082  0.63327010     0.92100
O381        O  0.14982335  0.63165369  0.59226067    -0.81500
O382        O  0.19252864  0.58445546  0.62421660    -0.75000
Al383      Al  0.14685935  0.62578808  0.62792084     1.90100
O384        O  0.18838908  0.61823184  0.58558003    -0.74100
O385        O  0.22608961  0.61335861  0.64673577    -0.74000
O386        O  0.22045319  0.64866964  0.60818965    -0.79600
O387        O  0.20393021  0.62933264  0.67812272    -0.77800
O388        O  0.17951639  0.63235777  0.63458972    -1.13900
O389        O  0.15890567  0.64960350  0.67994489    -0.73100
C390        C  0.14391189  0.63140494  0.68183651     0.97600
C391        C  0.16738555  0.62572338  0.57721815     0.94000
Al392      Al  0.20460447  0.61739091  0.61759672     1.55600
O393        O  0.13649001  0.66145003  0.63083407    -0.77800
C394        C  0.22243246  0.61648977  0.67023710     0.98100
C395        C  0.17048585  0.57528204  0.62416885     0.93000
O396        O  0.15137788  0.58969364  0.62354024    -0.83100
O397        O  0.88233997  0.83982310  0.63788727    -0.82500
C398        C  0.82951717  0.87810591  0.72221716     0.96800
O399        O  0.82860008  0.85626601  0.71284600    -0.71700
O400        O  0.81622623  0.86181602  0.66586246    -0.75300
Al401      Al  0.84130155  0.84286334  0.68220543     1.49000
C402        C  0.81706987  0.86758036  0.64284291     0.92100
O403        O  0.86513748  0.90929190  0.64953803    -0.81500
O404        O  0.91250546  0.87259517  0.69216904    -0.75000
Al405      Al  0.87272079  0.87410892  0.64515331     1.90100
O406        O  0.88149794  0.91418875  0.68759232    -0.74100
O407        O  0.88090770  0.85124159  0.72415188    -0.74000
O408        O  0.84808137  0.89241618  0.71778787    -0.79600
O409        O  0.86445967  0.82213485  0.69922347    -0.77800
O410        O  0.86457995  0.86645111  0.67690677    -1.13900
O411        O  0.84774573  0.82290987  0.65254566    -0.73100
C412        C  0.86829383  0.82079473  0.64080591     0.97600
C413        C  0.87322962  0.92358394  0.66715950     0.94000
Al414      Al  0.87956515  0.88145549  0.70324944     1.55600
O415        O  0.83822413  0.86960250  0.63155996    -0.77800
C416        C  0.87690093  0.82814891  0.71877463     0.98100
C417        C  0.92216226  0.87584305  0.67062721     0.93000
O418        O  0.90815890  0.87999471  0.65165839    -0.83100
O419        O  0.84159280  0.65010311  0.87590859    -0.82500
C420        C  0.88685525  0.73741990  0.83410364     0.96800
O421        O  0.86433182  0.72995435  0.83210684    -0.71700
O422        O  0.86582865  0.68434434  0.81506186    -0.75300
Al423      Al  0.84811118  0.69958433  0.84162736     1.49000
C424        C  0.87306131  0.66178848  0.81338746     0.92100
O425        O  0.91216247  0.65895960  0.86365087    -0.81500
O426        O  0.87816173  0.70004346  0.91319902    -0.75000
Al427      Al  0.87650116  0.65679651  0.86898127     1.90100
O428        O  0.91959952  0.69544469  0.88211655    -0.74100
O429        O  0.86008985  0.73657562  0.88461972    -0.74000
O430        O  0.90071111  0.72969930  0.85187498    -0.79600
O431        O  0.82844753  0.71634971  0.86652679    -0.77800
O432        O  0.87115321  0.68981571  0.86417593    -1.13900
O433        O  0.82564845  0.67156504  0.84467565    -0.73100
C434        C  0.82300317  0.65603906  0.86231064     0.97600
C435        C  0.92750843  0.67512732  0.87236276     0.94000
Al436      Al  0.88822462  0.71332828  0.88161796     1.55600
O437        O  0.87377870  0.64777100  0.83285835    -0.77800
C438        C  0.83661443  0.73449012  0.87991280     0.98100
C439        C  0.87824640  0.67753457  0.92089291     0.93000
O440        O  0.88043045  0.65938613  0.90531868    -0.83100
O441        O  0.63936519  0.88337537  0.84021694    -0.82500
C442        C  0.72709369  0.83396642  0.87821584     0.96800
O443        O  0.71819493  0.83260728  0.85612026    -0.71700
O444        O  0.67130493  0.81969780  0.85737891    -0.75300
Al445      Al  0.68865397  0.84596697  0.84092782     1.49000
C446        C  0.64899921  0.81962483  0.86554555     0.92100
O447        O  0.65518471  0.86632913  0.90895283    -0.81500
O448        O  0.69543237  0.91626689  0.87205585    -0.75000
Al449      Al  0.64954440  0.87461473  0.87404024     1.90100
O450        O  0.69162434  0.88558632  0.91329176    -0.74100
O451        O  0.72963645  0.88531380  0.85286492    -0.74000
O452        O  0.72213829  0.85258455  0.89239377    -0.79600
O453        O  0.70746594  0.86965503  0.82148554    -0.77800
O454        O  0.68175262  0.86817245  0.86533038    -1.13900
O455        O  0.66049468  0.85378031  0.82030103    -0.73100
C456        C  0.64361597  0.87044624  0.82052223     0.97600
C457        C  0.67298607  0.87433706  0.92284033     0.94000
Al458      Al  0.70737205  0.88371561  0.88124662     1.55600
O459        O  0.63742005  0.84014535  0.86965221    -0.77800
C460        C  0.72681353  0.88126571  0.82948618     0.98100
C461        C  0.67360771  0.92517118  0.87599490     0.93000
O462        O  0.65506803  0.91047489  0.88014429    -0.83100
O463        O  0.85823013  0.65750245  0.60835132    -0.82500
C464        C  0.77373966  0.62811000  0.66550806     0.96800
O465        O  0.78494665  0.64903264  0.66571907    -0.71700
O466        O  0.83125573  0.63774108  0.67549001    -0.75300
Al467      Al  0.81627840  0.65864179  0.65160391     1.49000
C468        C  0.85298544  0.62836706  0.67366915     0.92100
O469        O  0.84086634  0.58903983  0.62546867    -0.81500
O470        O  0.79891563  0.62936225  0.58148619    -0.75000
Al471      Al  0.84823931  0.62376611  0.61793602     1.90100
O472        O  0.80118968  0.58851771  0.61278594    -0.74100
O473        O  0.77207122  0.65438849  0.61473005    -0.74000
O474        O  0.77616345  0.61318469  0.64708773    -0.79600
O475        O  0.80045091  0.68138513  0.62920682    -0.77800
O476        O  0.81795885  0.63461310  0.62801834    -1.13900
O477        O  0.84771527  0.67462379  0.64434349    -0.73100
C478        C  0.85781821  0.67641636  0.62298546     0.97600
C479        C  0.82071225  0.57705016  0.62034002     0.94000
Al480      Al  0.78947194  0.62233950  0.61495921     1.55600
O481        O  0.86362462  0.62583998  0.65214834    -0.77800
C482        C  0.77949662  0.67693839  0.61844543     0.98100
C483        C  0.81919072  0.62415238  0.57019806     0.93000
O484        O  0.83909499  0.61920610  0.58260416    -0.83100
O485        O  0.66172499  0.61243972  0.84770909    -0.82500
C486        C  0.61352268  0.66763572  0.77023710     0.96800
O487        O  0.63598149  0.66928624  0.77781470    -0.71700
O488        O  0.63435665  0.67843288  0.82565775    -0.75300
Al489      Al  0.65269229  0.65541466  0.80599070     1.49000
C490        C  0.63056410  0.67607711  0.84898716     0.92100
O491        O  0.59054338  0.62689872  0.84313442    -0.81500
O492        O  0.62426194  0.58403090  0.79407420    -0.75000
Al493      Al  0.62635334  0.62047102  0.84385643     1.90100
O494        O  0.58280495  0.61341212  0.80444633    -0.74100
O495        O  0.64140247  0.61809167  0.76289716    -0.74000
O496        O  0.60032763  0.64850929  0.77511676    -0.79600
O497        O  0.67262013  0.63430597  0.78536729    -0.77800
O498        O  0.63069191  0.63083500  0.81208470    -1.13900
O499        O  0.67551240  0.64833944  0.83296192    -0.73100
C500        C  0.67955404  0.62791139  0.84418380     0.97600
C501        C  0.57502196  0.62103895  0.82572964     0.94000
Al502      Al  0.61360517  0.61704275  0.78636811     1.55600
O503        O  0.63044149  0.65432793  0.85913410    -0.77800
C504        C  0.66475070  0.62278182  0.76586843     0.98100
C505        C  0.62378426  0.57263954  0.81490770     0.93000
O506        O  0.62162471  0.58497526  0.83542219    -0.83100
O507        O  0.60927966  0.85067558  0.66053987    -0.82500
C508        C  0.66334183  0.76858524  0.61537363     0.96800
O509        O  0.66410928  0.77671247  0.63772296    -0.71700
O510        O  0.67457392  0.82448534  0.63610258    -0.75300
Al511      Al  0.65005598  0.80573508  0.65339376     1.49000
C512        C  0.67301813  0.84740582  0.63009355     0.92100
O513        O  0.62323223  0.84414950  0.58999941    -0.81500
O514        O  0.58011956  0.79567762  0.61978160    -0.75000
Al515      Al  0.61705931  0.84480151  0.62546876     1.90100
O516        O  0.61273517  0.80503865  0.58110592    -0.74100
O517        O  0.61210588  0.76425649  0.63968783    -0.74000
O518        O  0.64558480  0.77484343  0.60088911    -0.79600
O519        O  0.62700738  0.78592893  0.67222836    -0.77800
O520        O  0.62671020  0.81269276  0.63011423    -1.13900
O521        O  0.64326143  0.83307150  0.67571462    -0.73100
C522        C  0.62490963  0.84781840  0.67830315     0.97600
C523        C  0.61918767  0.82678867  0.57411003     0.94000
Al524      Al  0.61364524  0.78728453  0.61191646     1.55600
O525        O  0.65162385  0.85845246  0.62896149    -0.77800
C526        C  0.61533786  0.76693882  0.66331589     0.98100
C527        C  0.56870447  0.81646233  0.62060744     0.93000
O528        O  0.58114034  0.83701431  0.62091857    -0.83100
O529        O  0.83211664  0.35460974  0.11071300    -0.82500
C530        C  0.86464528  0.26611390  0.16016213     0.96800
O531        O  0.84389967  0.27739836  0.16258341    -0.71700
O532        O  0.85562674  0.32313868  0.17485483    -0.75300
Al533      Al  0.83326075  0.30946051  0.15103440     1.49000
C534        C  0.86458760  0.34510025  0.17396596     0.92100
O535        O  0.90134997  0.33546415  0.12427836    -0.81500
O536        O  0.85786101  0.29716295  0.07856748    -0.75000
Al537      Al  0.86639149  0.34358867  0.11812831     1.90100
O538        O  0.90104717  0.29723857  0.10776811    -0.74100
O539        O  0.83459090  0.26768996  0.11091966    -0.74000
O540        O  0.87815608  0.26979169  0.14103070    -0.79600
O541        O  0.80923066  0.29517332  0.12899334    -0.77800
O542        O  0.85574799  0.31276750  0.12645332    -1.13900
O543        O  0.81651530  0.34089917  0.14630922    -0.73100
C544        C  0.81406961  0.35345222  0.12635498     0.97600
C545        C  0.91302380  0.31582607  0.11714692     0.94000
Al546      Al  0.86698251  0.28530625  0.11069937     1.55600
O547        O  0.86580004  0.35692728  0.15308288    -0.77800
C548        C  0.81244242  0.27496969  0.11670024     0.98100
C549        C  0.86394083  0.31773148  0.06844405     0.93000
O550        O  0.86979644  0.33666763  0.08206354    -0.83100
O551        O  0.85421799  0.33831426  0.37715796    -0.82500
C552        C  0.76397502  0.37642400  0.33343398     0.96800
O553        O  0.77237211  0.35422823  0.33163385    -0.71700
O554        O  0.81824288  0.35565003  0.31656928    -0.75300
Al555      Al  0.80269498  0.33898279  0.34326326     1.49000
C556        C  0.83949107  0.36619230  0.31517087     0.92100
O557        O  0.83739596  0.40743855  0.36488732    -0.81500
O558        O  0.79863078  0.36855898  0.41339771    -0.75000
Al559      Al  0.84320009  0.37210782  0.37058238     1.90100
O560        O  0.80148935  0.41057559  0.38484871    -0.74100
O561        O  0.76338244  0.35057617  0.38341635    -0.74000
O562        O  0.77035564  0.39060146  0.35166178    -0.79600
O563        O  0.78563786  0.31947245  0.36793428    -0.77800
O564        O  0.81078026  0.36329426  0.36527497    -1.13900
O565        O  0.83110115  0.31827403  0.34911805    -0.73100
C566        C  0.84886541  0.31853861  0.36491333     0.97600
C567        C  0.81997613  0.42079141  0.37409977     0.94000
Al568      Al  0.78580082  0.37873801  0.38197482     1.55600
O569        O  0.85274162  0.37038710  0.33486189    -0.77800
C570        C  0.76654643  0.32728484  0.37983055     0.98100
C571        C  0.82085194  0.37105296  0.42187870     0.93000
O572        O  0.83926630  0.37538664  0.40706888    -0.83100
O573        O  0.88099756  0.15814592  0.35797403    -0.82500
C574        C  0.82880278  0.12180479  0.27116079     0.96800
O575        O  0.82491767  0.14167833  0.28364513    -0.71700
O576        O  0.81630973  0.13084070  0.33026153    -0.75300
Al577      Al  0.83779131  0.15423425  0.31461426     1.49000
C578        C  0.81900293  0.12392035  0.35279563     0.92100
O579        O  0.86944512  0.08888311  0.33920499    -0.81500
O580        O  0.91106846  0.13502516  0.29954119    -0.75000
Al581      Al  0.87461611  0.12386149  0.34733115     1.90100
O582        O  0.88552379  0.08990386  0.30089805    -0.74100
O583        O  0.87579667  0.15435510  0.27097734    -0.74000
O584        O  0.84902048  0.10961411  0.27400573    -0.79600
O585        O  0.85690621  0.17935533  0.29826491    -0.77800
O586        O  0.86398804  0.13363079  0.31683425    -1.13900
O587        O  0.84408365  0.17214416  0.34539901    -0.73100
C588        C  0.86433059  0.17519880  0.35768588     0.97600
C589        C  0.87717270  0.07756426  0.31950756     0.94000
Al590      Al  0.87923521  0.12307491  0.28878184     1.55600
O591        O  0.84085898  0.12353011  0.36292696    -0.77800
C592        C  0.86866529  0.17615275  0.27776555     0.98100
C593        C  0.92254384  0.12989936  0.31976549     0.93000
O594        O  0.91033285  0.12219759  0.33881354    -0.83100
O595        O  0.63126976  0.11094781  0.16568469    -0.82500
C596        C  0.71493370  0.16336007  0.12283700     0.96800
O597        O  0.70338595  0.16819399  0.14306657    -0.71700
O598        O  0.65552621  0.17528564  0.13511778    -0.75300
Al599      Al  0.67356399  0.15498968  0.15801335     1.49000
C600        C  0.63241597  0.17187696  0.13052834     0.92100
O601        O  0.64473278  0.12150743  0.09506241    -0.81500
O602        O  0.68834392  0.08126057  0.13864827    -0.75000
Al603      Al  0.63935352  0.11666760  0.13051719     1.90100
O604        O  0.68343737  0.10638661  0.09336709    -0.74100
O605        O  0.71748931  0.11696163  0.15645800    -0.74000
O606        O  0.71141102  0.14271256  0.11152086    -0.79600
O607        O  0.69223380  0.13715057  0.18255519    -0.77800
O608        O  0.67033315  0.12808663  0.13816610    -1.13900
O609        O  0.64424903  0.14845588  0.17812014    -0.73100
C610        C  0.63177688  0.12851373  0.18207844     0.97600
C611        C  0.66370626  0.11429397  0.08235078     0.94000
Al612      Al  0.69776863  0.11298511  0.12603897     1.55600
O613        O  0.62295563  0.14983078  0.13117421    -0.77800
C614        C  0.71210581  0.12462276  0.17853880     0.98100
C615        C  0.66831576  0.06925889  0.13390163     0.93000
O616        O  0.64839212  0.08109215  0.12798760    -0.83100
O617        O  0.65099559  0.37493919  0.13785290    -0.82500
C618        C  0.61717178  0.32964369  0.22936079     0.96800
O619        O  0.63663196  0.32502520  0.21655106    -0.71700
O620        O  0.62594025  0.31250111  0.17038008    -0.75300
Al621      Al  0.64873964  0.33593289  0.18474611     1.49000
C622        C  0.61761067  0.31347209  0.14808309     0.92100
O623        O  0.58146048  0.36440241  0.15786543    -0.81500
O624        O  0.62671086  0.41022704  0.19397524    -0.75000
Al625      Al  0.61670946  0.36895674  0.14935363     1.90100
O626        O  0.58290782  0.38234476  0.19549135    -0.74100
O627        O  0.64840635  0.37839205  0.22501135    -0.74000
O628        O  0.60470370  0.34950749  0.22544056    -0.79600
O629        O  0.67355484  0.35695364  0.19989028    -0.77800
O630        O  0.62719731  0.36128746  0.18064062    -1.13900
O631        O  0.66657615  0.34021584  0.15368626    -0.73100
C632        C  0.66881638  0.35914390  0.13958099     0.73600
C633        C  0.57029324  0.37340416  0.17712991     0.94000
Al634      Al  0.61657479  0.37872082  0.20756885     1.55600
O635        O  0.61651390  0.33435602  0.13655686    -0.77800
C636        C  0.67032878  0.37111623  0.21889327     0.98100
C637        C  0.62147791  0.41915880  0.17254053     0.93000
O638        O  0.61451908  0.40472404  0.15473224    -0.83100
O639        O  0.61078251  0.13332139  0.34594363    -0.82500
C640        C  0.66578244  0.21959521  0.37668133     0.96800
O641        O  0.66707159  0.20856289  0.35558542    -0.71700
O642        O  0.67771677  0.16202654  0.36250859    -0.75300
Al643      Al  0.65261652  0.17825368  0.34340315     1.49000
C644        C  0.67642521  0.13997709  0.37092748     0.92100
O645        O  0.63075046  0.15286860  0.41345210    -0.81500
O646        O  0.58222427  0.19111886  0.37191244    -0.75000
Al647      Al  0.62150592  0.14453088  0.37904212     1.90100
O648        O  0.61297270  0.19035610  0.41418244    -0.74100
O649        O  0.61458962  0.22201045  0.34898696    -0.74000
O650        O  0.64655796  0.21737134  0.39050200    -0.79600
O651        O  0.63019497  0.19529179  0.32151791    -0.77800
O652        O  0.62973607  0.17522574  0.36767084    -1.13900
O653        O  0.64356353  0.14829166  0.32555736    -0.73100
C654        C  0.62373114  0.13509438  0.32598002     0.97600
C655        C  0.62317212  0.17209358  0.42564018     0.94000
Al656      Al  0.61514747  0.20284647  0.38033375     1.55600
O657        O  0.65512651  0.12973996  0.37499966    -0.77800
C658        C  0.61923211  0.21586531  0.32626598     0.98100
C659        C  0.57257620  0.17035551  0.37855443     0.93000
O660        O  0.58654913  0.15224078  0.38530524    -0.83100
O661        O  0.83125914  0.88545831  0.35825861    -0.82500
C662        C  0.86481136  0.83655145  0.26865579     0.96800
O663        O  0.84456095  0.83309722  0.28056857    -0.71700
O664        O  0.85371921  0.82124157  0.32689907    -0.75300
Al665      Al  0.83226918  0.84513129  0.31192694     1.49000
C666        C  0.86113096  0.82238547  0.34948241     0.92100
O667        O  0.90033504  0.87161438  0.33922701    -0.81500
O668        O  0.85682181  0.91818890  0.30198567    -0.75000
Al669      Al  0.86522495  0.87779067  0.34735971     1.90100
O670        O  0.89993364  0.88952993  0.30178323    -0.74100
O671        O  0.83471505  0.88595011  0.27073676    -0.74000
O672        O  0.87781243  0.85617991  0.27246392    -0.79600
O673        O  0.80863613  0.86650328  0.29627905    -0.77800
O674        O  0.85473608  0.86978314  0.31607741    -1.13900
O675        O  0.81417710  0.85105884  0.34248346    -0.73100
C676        C  0.81256192  0.87068936  0.35592248     0.97600
C677        C  0.91202440  0.88015276  0.32013369     0.94000
Al678      Al  0.86633735  0.88617396  0.28910219     1.55600
O679        O  0.86342740  0.84351385  0.36069854    -0.77800
C680        C  0.81245905  0.87962283  0.27686966     0.98100
C681        C  0.86247806  0.92740269  0.32332543     0.93000
O682        O  0.86895523  0.91327087  0.34135962    -0.83100
O683        O  0.87541223  0.63935148  0.15282746    -0.82500
C684        C  0.82142032  0.72464096  0.11952392     0.96800
O685        O  0.82020171  0.71453194  0.14095211    -0.71700
O686        O  0.81097312  0.66822178  0.13037649    -0.75300
Al687      Al  0.83373045  0.68365367  0.15242890     1.49000
C688        C  0.81313060  0.64728159  0.11935960     0.92100
O689        O  0.86466955  0.65973133  0.08378058    -0.81500
O690        O  0.90513175  0.70041402  0.13046368    -0.75000
Al691      Al  0.86907075  0.65144132  0.11901464     1.90100
O692        O  0.87912050  0.69843157  0.08581000    -0.74100
O693        O  0.86950250  0.72850427  0.15080854    -0.74000
O694        O  0.84118705  0.72265324  0.10635473    -0.79600
O695        O  0.85454761  0.69994510  0.17664229    -0.77800
O696        O  0.85864420  0.68160740  0.13006554    -1.13900
O697        O  0.84026875  0.65303006  0.16947768    -0.73100
C698        C  0.85988602  0.63984474  0.17088097     0.97600
C699        C  0.87207659  0.67957786  0.07288136     0.94000
Al700      Al  0.87271356  0.71008398  0.11921147     1.55600
O701        O  0.83465962  0.63669003  0.11718533    -0.77800
C702        C  0.86454999  0.72127578  0.17306450     0.98100
C703        C  0.91679380  0.68002001  0.12638796     0.93000
O704        O  0.90489398  0.66051551  0.11869846    -0.83100
O705        O  0.63418887  0.83283866  0.11551150    -0.82500
C706        C  0.71873737  0.87924237  0.16254140     0.96800
O707        O  0.71119145  0.85681667  0.16475915    -0.71700
O708        O  0.66483020  0.85730396  0.17919431    -0.75300
Al709      Al  0.68157141  0.83988425  0.15340220     1.49000
C710        C  0.64184842  0.86327603  0.17959567     0.92100
O711        O  0.64171186  0.90314300  0.13123866    -0.81500
O712        O  0.68438734  0.86893178  0.08222532    -0.75000
Al713      Al  0.63966721  0.86768698  0.12411256     1.90100
O714        O  0.67813282  0.91059072  0.11283448    -0.74100
O715        O  0.71995090  0.85207163  0.11197116    -0.74000
O716        O  0.71155659  0.89255064  0.14425322    -0.79600
O717        O  0.69973019  0.82046100  0.12941792    -0.77800
O718        O  0.67250765  0.86259232  0.13050155    -1.13900
O719        O  0.65389726  0.81714416  0.14819031    -0.73100
C720        C  0.64008475  0.81419686  0.12896996     0.97600
C721        C  0.65811132  0.91849897  0.12315030     0.94000
Al722      Al  0.69638787  0.87963145  0.11408214     1.55600
O723        O  0.62880298  0.86363027  0.15934400    -0.77800
C724        C  0.71781119  0.82868768  0.11625288     0.98100
C725        C  0.66224540  0.86998666  0.07343185     0.93000
O726        O  0.64358109  0.87290884  0.08811161    -0.83100
O727        O  0.65260393  0.85021603  0.37986446    -0.82500
C728        C  0.61698586  0.75983065  0.33459689     0.96800
O729        O  0.63833220  0.76995444  0.33158831    -0.71700
O730        O  0.62753088  0.81521085  0.31857652    -0.75300
Al731      Al  0.65024723  0.80223554  0.34195528     1.49000
C732        C  0.61755762  0.83669128  0.31923235     0.92100
O733        O  0.58326921  0.82975467  0.37198454    -0.81500
O734        O  0.62942860  0.79224793  0.41438540    -0.75000
Al735      Al  0.61849730  0.83788938  0.37523171     1.90100
O736        O  0.58408669  0.79234232  0.38929133    -0.74100
O737        O  0.64927767  0.76115036  0.38170843    -0.74000
O738        O  0.60416476  0.76434592  0.35407560    -0.79600
O739        O  0.67476913  0.78838236  0.36371822    -0.77800
O740        O  0.62861053  0.80676058  0.36707800    -1.13900
O741        O  0.66760088  0.83361180  0.34514080    -0.73100
C742        C  0.66967033  0.84892426  0.36330137     0.97600
C743        C  0.57174234  0.81091989  0.38089625     0.94000
Al744      Al  0.61758772  0.77982272  0.38365188     1.55600
O745        O  0.61648400  0.84936513  0.33980925    -0.77800
C746        C  0.67148614  0.76829053  0.37598928     0.98100
C747        C  0.62592643  0.81340454  0.42467802     0.93000
O748        O  0.61847165  0.83209793  0.41171037    -0.83100
O749        O  0.85919880  0.61448527  0.33414829    -0.82500
C750        C  0.77131065  0.65878279  0.37792361     0.96800
O751        O  0.77992956  0.66155616  0.35594310    -0.71700
O752        O  0.82621388  0.67703445  0.35708066    -0.75300
Al753      Al  0.80985222  0.65064263  0.33957962     1.49000
C754        C  0.84926730  0.67787088  0.36297634     0.92100
O755        O  0.84837538  0.63009522  0.40430053    -0.81500
O756        O  0.80793107  0.57971984  0.36873778    -0.75000
Al757      Al  0.85178923  0.62268233  0.36887999     1.90100
O758        O  0.81251320  0.61021456  0.41044835    -0.74100
O759        O  0.77187391  0.60839060  0.35100923    -0.74000
O760        O  0.77856294  0.64073454  0.39152398    -0.79600
O761        O  0.79213490  0.62642215  0.31984014    -0.77800
O762        O  0.81889286  0.62809525  0.36257966    -1.13900
O763        O  0.83771175  0.64551050  0.31743162    -0.73100
C764        C  0.85380536  0.62816740  0.31543265     0.97600
C765        C  0.83191115  0.62124271  0.41913369     0.94000
Al766      Al  0.79492812  0.61108876  0.37903840     1.55600
O767        O  0.86215536  0.65777706  0.36465939    -0.77800
C768        C  0.77392981  0.61321785  0.32772355     0.98100
C769        C  0.83013907  0.57146886  0.37108676     0.93000
O770        O  0.84846691  0.58662085  0.37435878    -0.83100
O771        O  0.60999495  0.65054162  0.14031503    -0.82500
C772        C  0.66781584  0.62099320  0.22428086     0.96800
O773        O  0.66757354  0.64216694  0.21372308    -0.71700
O774        O  0.67730357  0.63034460  0.16720120    -0.75300
Al775      Al  0.65345339  0.65156246  0.18219828     1.49000
C776        C  0.67519906  0.62052057  0.14554784     0.92100
O777        O  0.62651536  0.58190891  0.15762318    -0.81500
O778        O  0.58332219  0.62312509  0.19963132    -0.75000
Al779      Al  0.61932212  0.61672638  0.15024686     1.90100
O780        O  0.61409885  0.58210092  0.19726126    -0.74100
O781        O  0.61694323  0.64771856  0.22620217    -0.74000
O782        O  0.64923326  0.60625111  0.22198145    -0.79600
O783        O  0.63098782  0.67451602  0.19781006    -0.77800
O784        O  0.62974934  0.62767885  0.18046663    -1.13900
O785        O  0.64622216  0.66727183  0.15072927    -0.73100
C786        C  0.62477393  0.66929096  0.14073948     0.97600
C787        C  0.62113628  0.57023783  0.17776162     0.94000
Al788      Al  0.61687326  0.61574979  0.20893217     1.55600
O789        O  0.65354639  0.61817191  0.13493847    -0.77800
C790        C  0.61988092  0.67014092  0.21846673     0.98100
C791        C  0.57168616  0.61780778  0.17944112     0.93000
O792        O  0.58386177  0.61268920  0.15942597    -0.83100
O793        O  0.13342756  0.38542470  0.33897081    -0.82500
C794        C  0.21550385  0.32722890  0.37548461     0.96800
O795        O  0.20563226  0.32691543  0.35386826    -0.71700
O796        O  0.15838810  0.31902472  0.36158540    -0.75300
Al797      Al  0.17572892  0.34196212  0.34160450     1.49000
C798        C  0.13631546  0.32164142  0.36992679     0.92100
O799        O  0.14694608  0.37053733  0.40893110    -0.81500
O800        O  0.19301287  0.41166115  0.37133386    -0.75000
Al801      Al  0.14211431  0.37706295  0.37354266     1.90100
O802        O  0.18693071  0.38109341  0.41273297    -0.74100
O803        O  0.22085127  0.37757677  0.34836118    -0.74000
O804        O  0.21258802  0.34591477  0.38993015    -0.79600
O805        O  0.19378540  0.36332794  0.31993447    -0.77800
O806        O  0.17288682  0.36595325  0.36505560    -1.13900
O807        O  0.14633274  0.34982719  0.32266150    -0.73100
C808        C  0.13451530  0.37019149  0.32054280     0.97600
C809        C  0.16609649  0.37496546  0.42269822     0.94000
Al810      Al  0.20092285  0.37818033  0.37941566     1.55600
O811        O  0.12615875  0.34338587  0.37158171    -0.77800
C812        C  0.21463981  0.37370569  0.32537702     0.98100
C813        C  0.17278942  0.42387982  0.37398124     0.93000
O814        O  0.15201299  0.41236169  0.37739950    -0.83100
O815        O  0.37579269  0.33967163  0.14019882    -0.82500
C816        C  0.32926290  0.37313591  0.23023051     0.96800
O817        O  0.32498763  0.35315329  0.21792392    -0.71700
O818        O  0.31173936  0.36307275  0.17213998    -0.75300
Al819      Al  0.33582109  0.34122137  0.18580192     1.49000
C820        C  0.31194816  0.37042413  0.14961609     0.92100
O821        O  0.36121077  0.40849495  0.15847657    -0.81500
O822        O  0.40967095  0.36562924  0.19425546    -0.75000
Al823      Al  0.36769156  0.37369546  0.15018538     1.90100
O824        O  0.38040633  0.40839752  0.19560742    -0.74100
O825        O  0.37863788  0.34322731  0.22547463    -0.74000
O826        O  0.34876245  0.38607124  0.22592439    -0.79600
O827        O  0.35768952  0.31746423  0.20022673    -0.77800
O828        O  0.36054710  0.36352379  0.18149879    -1.13900
O829        O  0.34047978  0.32362248  0.15428537    -0.73100
C830        C  0.36122764  0.32095387  0.14292240     0.97600
C831        C  0.37003588  0.42021911  0.17761476     0.94000
Al832      Al  0.37801166  0.37491501  0.20804120     1.55600
O833        O  0.33261848  0.37161978  0.13742150    -0.77800
C834        C  0.37193986  0.32111940  0.21905207     0.98100
C835        C  0.41839701  0.37132777  0.17290461     0.93000
O836        O  0.40365834  0.37804273  0.15532013    -0.83100
O837        O  0.33912791  0.14858808  0.38876774    -0.82500
C838        C  0.37696393  0.23207581  0.33500282     0.96800
O839        O  0.35500979  0.22285162  0.33373480    -0.71700
O840        O  0.36048808  0.17591472  0.32285722    -0.75300
Al841      Al  0.34131113  0.19267138  0.34724636     1.49000
C842        C  0.36927633  0.15395705  0.32406807     0.92100
O843        O  0.40857230  0.16193504  0.37262722    -0.81500
O844        O  0.37035238  0.20542398  0.41783071    -0.75000
Al845      Al  0.37344382  0.15684631  0.37989800     1.90100
O846        O  0.41200314  0.20038000  0.38806326    -0.74100
O847        O  0.34979447  0.23556002  0.38498609    -0.74000
O848        O  0.39096712  0.22779179  0.35372976    -0.79600
O849        O  0.32007890  0.21061143  0.36983155    -0.77800
O850        O  0.36492045  0.18809589  0.37084412    -1.13900
O851        O  0.32170245  0.16323100  0.35433986    -0.73100
C852        C  0.32002669  0.15108963  0.37462885     0.97600
C853        C  0.42197027  0.18068903  0.37913689     0.94000
Al854      Al  0.37953953  0.21495634  0.38505939     1.55600
O855        O  0.37078157  0.14259801  0.34522471    -0.77800
C856        C  0.32664630  0.23061835  0.38124646     0.98100
C857        C  0.37474839  0.18484777  0.42873873     0.93000
O858        O  0.37845111  0.16487950  0.41582341    -0.83100
O859        O  0.15752350  0.11350161  0.36389411    -0.82500
C860        C  0.11564170  0.16782345  0.28199086     0.96800
O861        O  0.13814621  0.16811082  0.28969674    -0.71700
O862        O  0.13714713  0.17958931  0.33694311    -0.75300
Al863      Al  0.15361389  0.15411427  0.31861235     1.49000
C864        C  0.13063795  0.17875683  0.35977048     0.92100
O865        O  0.08792577  0.13291285  0.35508420    -0.81500
O866        O  0.12050474  0.08415526  0.31020589    -0.75000
Al867      Al  0.12306396  0.12387109  0.35770904     1.90100
O868        O  0.08078703  0.11670847  0.31741631    -0.74100
O869        O  0.13998510  0.11576822  0.27711324    -0.74000
O870        O  0.10124233  0.14952412  0.28701778    -0.79600
O871        O  0.17221287  0.13059396  0.29894950    -0.77800
O872        O  0.12949890  0.13174414  0.32550661    -1.13900
O873        O  0.17527588  0.14622021  0.34617084    -0.73100
C874        C  0.17684937  0.12688772  0.35971799     0.97600
C875        C  0.07271341  0.12647855  0.33765113     0.94000
Al876      Al  0.11209242  0.11761479  0.30012915     1.55600
O877        O  0.12877131  0.15783228  0.37116037    -0.77800
C878        C  0.16354179  0.11914247  0.27973438     0.98100
C879        C  0.11834410  0.07461639  0.33195542     0.93000
O880        O  0.11592430  0.08874208  0.35120359    -0.83100
O881        O  0.35094129  0.15640221  0.11881724    -0.82500
C882        C  0.26930112  0.11990873  0.17642687     0.96800
O883        O  0.27822211  0.14188147  0.17583824    -0.71700
O884        O  0.32534129  0.13537948  0.18566316    -0.75300
Al885      Al  0.30858458  0.15409992  0.16140772     1.49000
C886        C  0.34728928  0.12647947  0.18415691     0.92100
O887        O  0.34025271  0.08694572  0.13499554    -0.81500
O888        O  0.29360813  0.12121160  0.09214698    -0.75000
Al889      Al  0.34378954  0.12206302  0.12817556     1.90100
O890        O  0.30041480  0.08142570  0.12442676    -0.74100
O891        O  0.26458792  0.14475670  0.12507453    -0.74000
O892        O  0.27329825  0.10469420  0.15854186    -0.79600
O893        O  0.29084520  0.17438374  0.13841777    -0.77800
O894        O  0.31259096  0.12979413  0.13834131    -1.13900
O895        O  0.33830625  0.17325391  0.15412561    -0.73100
C896        C  0.34903197  0.17537415  0.13311899     0.97600
C897        C  0.32177098  0.07246675  0.13036658     0.94000
Al898      Al  0.28528660  0.11426294  0.12596771     1.55600
O899        O  0.35857283  0.12482667  0.16282587    -0.77800
C900        C  0.27018362  0.16798105  0.12809098     0.98100
C901        C  0.31426115  0.11917726  0.08049024     0.93000
O902        O  0.33490979  0.11724571  0.09263747    -0.83100
O903        O  0.11065861  0.35033855  0.15910995    -0.82500
C904        C  0.15224620  0.25796746  0.12251140     0.96800
O905        O  0.15469013  0.26789994  0.14403028    -0.71700
O906        O  0.17124390  0.31320141  0.13729273    -0.75300
Al907      Al  0.14509533  0.29977252  0.15707203     1.49000
C908        C  0.17252804  0.33512658  0.12835102     0.92100
O909        O  0.12258557  0.33281049  0.08968287    -0.81500
O910        O  0.07284615  0.29599853  0.12784142    -0.75000
Al911      Al  0.11697262  0.33927931  0.12485449     1.90100
O912        O  0.10388882  0.29594493  0.08632562    -0.74100
O913        O  0.10192956  0.26209401  0.14943570    -0.74000
O914        O  0.13416326  0.26413123  0.10829100    -0.79600
O915        O  0.12076781  0.28491081  0.17887192    -0.77800
O916        O  0.12200670  0.30703992  0.13365346    -1.13900
O917        O  0.14217223  0.33002471  0.17628660    -0.73100
C918        C  0.12569208  0.34702563  0.17737197     0.97600
C919        C  0.11459589  0.31465161  0.07630498     0.94000
Al920      Al  0.10453459  0.28183462  0.11922895     1.55600
O921        O  0.15285031  0.34875727  0.12649017    -0.77800
C922        C  0.10728834  0.26613242  0.17248779     0.98100
C923        C  0.06498409  0.31825265  0.12490920     0.93000
O924        O  0.08054101  0.33611348  0.12118847    -0.83100
O925        O  0.37439963  0.85282104  0.34367140    -0.82500
C926        C  0.33310882  0.76150325  0.38072142     0.96800
O927        O  0.32906992  0.77155654  0.35958438    -0.71700
O928        O  0.31304191  0.81689135  0.36687762    -0.75300
Al929      Al  0.33842594  0.80333586  0.34616585     1.49000
C930        C  0.31205406  0.83924226  0.37492290     0.92100
O931        O  0.36280450  0.83511194  0.41325129    -0.81500
O932        O  0.41161303  0.79915329  0.37117333    -0.75000
Al933      Al  0.36815494  0.84223893  0.37799823     1.90100
O934        O  0.38337229  0.79918631  0.41462768    -0.74100
O935        O  0.38177962  0.76506863  0.35049957    -0.74000
O936        O  0.35213521  0.76746059  0.39374061    -0.79600
O937        O  0.36156357  0.78884074  0.32332527    -0.77800
O938        O  0.36253234  0.81023131  0.36864845    -1.13900
O939        O  0.34151843  0.83362982  0.32708555    -0.73100
C940        C  0.35931665  0.84935215  0.32536104     0.97600
C941        C  0.37224771  0.81715099  0.42580198     0.94000
Al942      Al  0.38077454  0.78497943  0.38141763     1.55600
O943        O  0.33214373  0.85251990  0.37663818    -0.77800
C944        C  0.37578595  0.77035748  0.32791145     0.98100
C945        C  0.42001899  0.82089772  0.37603548     0.93000
O946        O  0.40489616  0.83873882  0.38141816    -0.83100
O947        O  0.10627971  0.84091783  0.35805346    -0.82500
C948        C  0.15395074  0.87523022  0.26893648     0.96800
O949        O  0.15537543  0.85374478  0.27875737    -0.71700
O950        O  0.17016005  0.85947184  0.32487235    -0.75300
Al951      Al  0.14366796  0.84102703  0.30990272     1.49000
C952        C  0.17095855  0.86821560  0.34703410     0.92100
O953        O  0.12284599  0.91007553  0.34169733    -0.81500
O954        O  0.07264052  0.87197796  0.30315324    -0.75000
Al955      Al  0.11526667  0.87487808  0.34811284     1.90100
O956        O  0.10461172  0.91256318  0.30445601    -0.74100
O957        O  0.10227820  0.84964387  0.27023199    -0.74000
O958        O  0.13578622  0.88969768  0.27407043    -0.79600
O959        O  0.11918785  0.82008636  0.29366335    -0.77800
O960        O  0.12126458  0.86536093  0.31615857    -1.13900
O961        O  0.13817535  0.82214285  0.33979439    -0.73100
C962        C  0.11961555  0.82146706  0.35452999     0.97600
C963        C  0.11505164  0.92310462  0.32322356     0.94000
Al964      Al  0.10512270  0.87973180  0.29028367     1.55600
O965        O  0.15069069  0.87153949  0.35956094    -0.77800
C966        C  0.10629577  0.82657767  0.27461551     0.98100
C967        C  0.06415788  0.87602378  0.32508791     0.93000
O968        O  0.07923548  0.88014037  0.34338786    -0.83100
O969        O  0.35193575  0.88213387  0.16324864    -0.82500
C970        C  0.26847035  0.82431708  0.12721318     0.96800
O971        O  0.27941449  0.82349354  0.14829895    -0.71700
O972        O  0.32668460  0.81578528  0.13841865    -0.75300
Al973      Al  0.30982298  0.83817861  0.16012003     1.49000
C974        C  0.34920177  0.81893583  0.13144947     0.92100
O975        O  0.33620172  0.86841960  0.09285326    -0.81500
O976        O  0.29192171  0.90879312  0.13465234    -0.75000
Al977      Al  0.34233051  0.87437745  0.12854987     1.90100
O978        O  0.29636038  0.87989791  0.09174576    -0.74100
O979        O  0.26485859  0.87387857  0.15629898    -0.74000
O980        O  0.27092063  0.84341414  0.11334487    -0.79600
O981        O  0.29243055  0.85881214  0.18351158    -0.77800
O982        O  0.31187991  0.86287160  0.13767919    -1.13900
O983        O  0.33995193  0.84574348  0.17829041    -0.73100
C984        C  0.35182130  0.86614077  0.18090200     0.97600
C985        C  0.31649541  0.87399480  0.08034904     0.94000
Al986      Al  0.28345976  0.87555608  0.12500396     1.55600
O987        O  0.35860056  0.84101794  0.12960021    -0.77800
C988        C  0.27163416  0.86956254  0.17891085     0.98100
C989        C  0.31206473  0.92108525  0.13139347     0.93000
O990        O  0.33240428  0.90964833  0.12597772    -0.83100
O991        O  0.15250407  0.63714475  0.11700888    -0.82500
C992        C  0.11320949  0.72107205  0.17125142     0.96800
O993        O  0.13571773  0.71372349  0.17023880    -0.71700
O994        O  0.13314802  0.66657253  0.18208084    -0.75300
Al995      Al  0.14981341  0.68420024  0.15625280     1.49000
C996        C  0.12526564  0.64413137  0.18120670     0.92100
O997        O  0.08261814  0.64829086  0.13303895    -0.81500
O998        O  0.11527936  0.69314827  0.08702921    -0.75000
Al999      Al  0.11807958  0.64528846  0.12590408     1.90100
O1000       O  0.07607783  0.68691216  0.12016604    -0.74100
O1001       O  0.13687342  0.72570394  0.11850280    -0.74000
O1002       O  0.09814923  0.71631613  0.15329567    -0.79600
O1003       O  0.16854848  0.70282071  0.13227749    -0.77800
O1004       O  0.12518515  0.67745244  0.13411053    -1.13900
O1005       O  0.17083502  0.65645287  0.14869403    -0.73100
C1006       C  0.17184361  0.64132986  0.13041499     0.97600
C1007       C  0.06765401  0.66597910  0.12756258     0.94000
Al1008     Al  0.10804226  0.70326736  0.12076532     1.55600
O1009       O  0.12196811  0.63274625  0.16022408    -0.77800
C1010       C  0.16044815  0.72230473  0.12127938     0.98100
C1011       C  0.11455868  0.67141966  0.07701998     0.93000
O1012       O  0.11302340  0.65187357  0.09058022    -0.83100
O1013       O  0.33385425  0.61535216  0.14291039    -0.82500
C1014       C  0.38130411  0.66001487  0.22968737     0.96800
O1015       O  0.35976330  0.66414608  0.22048633    -0.71700
O1016       O  0.36190743  0.67750639  0.17359045    -0.75300
Al1017     Al  0.34265324  0.65320452  0.19088714     1.49000
C1018       C  0.36707846  0.67687911  0.15036699     0.92100
O1019       O  0.40516468  0.62600634  0.15274475    -0.81500
O1020       O  0.36763002  0.58000345  0.19517892    -0.75000
Al1021     Al  0.36923353  0.62128485  0.14992429     1.90100
O1022       O  0.41096969  0.60825668  0.18968735    -0.74100
O1023       O  0.35126165  0.61139196  0.23013864    -0.74000
O1024       O  0.39375687  0.64088701  0.22299704    -0.79600
O1025       O  0.32137065  0.63129510  0.20945227    -0.77800
O1026       O  0.36391722  0.62857507  0.18267544    -1.13900
O1027       O  0.32005300  0.64874184  0.16304737    -0.73100
C1028       C  0.31657571  0.63116986  0.14726100     0.97600
C1029       C  0.41984682  0.61729623  0.16948737     0.94000
Al1030     Al  0.37956218  0.61148835  0.20722893     1.55600
O1031       O  0.36734100  0.65607687  0.13833361    -0.77800
C1032       C  0.32835021  0.61793294  0.22789204     0.98100
C1033       C  0.36844166  0.57107133  0.17304040     0.93000
O1034       O  0.37202446  0.58539626  0.15435730    -0.83100
O1035       O  0.13876957  0.66028455  0.38888081    -0.82500
C1036       C  0.21810840  0.62173995  0.32810372     0.96800
O1037       O  0.20822480  0.64323300  0.32844231    -0.71700
O1038       O  0.16033735  0.63624046  0.32093911    -0.75300
Al1039     Al  0.17862969  0.65578867  0.34401185     1.49000
C1040       C  0.13769854  0.62952050  0.32397092     0.92100
O1041       O  0.14696737  0.59017198  0.37241359    -0.81500
O1042       O  0.19591047  0.62445142  0.41309761    -0.75000
Al1043     Al  0.14450185  0.62551499  0.37943443     1.90100
O1044       O  0.18723650  0.58424984  0.38096911    -0.74100
O1045       O  0.22358477  0.64713545  0.37944616    -0.74000
O1046       O  0.21440946  0.60672672  0.34608521    -0.79600
O1047       O  0.19749821  0.67656200  0.36587939    -0.77800
O1048       O  0.17537635  0.63232380  0.36762537    -1.13900
O1049       O  0.14956326  0.67551719  0.35238073    -0.73100
C1050       C  0.14008707  0.67863679  0.37390652     0.97600
C1051       C  0.16543658  0.57549065  0.37604599     0.94000
Al1052     Al  0.20292408  0.61681716  0.37903953     1.55600
O1053       O  0.12795852  0.62854214  0.34601502    -0.77800
C1054       C  0.21783195  0.67025290  0.37671924     0.98100
C1055       C  0.17573250  0.62349777  0.42560879     0.93000
O1056       O  0.15468367  0.62104503  0.41436345    -0.83100
C1057       C  0.30987732  0.61144489  0.24789751    -0.06000
C1058       C  0.31814033  0.60248516  0.27153154    -0.05900
C1059       C  0.30117036  0.59999112  0.29167011    -0.24100
C1060       C  0.27564175  0.60649684  0.28857530     0.18100
C1061       C  0.26700554  0.61445086  0.26453572     0.15400
C1062       C  0.28406573  0.61665045  0.24439769    -0.19100
C1063       C  0.24168557  0.62140609  0.26131580    -0.20900
C1064       C  0.22543740  0.62203858  0.28200936    -0.13500
C1065       C  0.23400550  0.61523805  0.30619778     0.03200
C1066       C  0.25890932  0.60657432  0.30929735    -0.25600
H1067       H  0.33793770  0.59838006  0.27477848     0.08300
H1068       H  0.30820299  0.59384120  0.30989818     0.11900
H1069       H  0.27739598  0.62351569  0.22627765     0.11800
H1070       H  0.23472947  0.62747255  0.24302449     0.11500
H1071       H  0.20630110  0.62883811  0.27934599     0.12100
H1072       H  0.26570495  0.60174094  0.32803027     0.14000
C1073       C  0.29215455  0.63065977  0.13360199    -0.06000
C1074       C  0.28549244  0.65201161  0.11953724    -0.05900
C1075       C  0.26046770  0.65603556  0.11212035    -0.24100
C1076       C  0.24145701  0.63902632  0.11917327     0.18100
C1077       C  0.24803553  0.61664306  0.13207263     0.15400
C1078       C  0.27354171  0.61240486  0.13896739    -0.19100
C1079       C  0.22868089  0.60012895  0.13973826    -0.20900
C1080       C  0.20316264  0.60680328  0.13660108    -0.13500
C1081       C  0.19662623  0.62974362  0.12520371     0.03200
C1082       C  0.21586470  0.64523529  0.11559605    -0.25600
H1083       H  0.29952005  0.66639781  0.11556946     0.08300
H1084       H  0.25575832  0.67327706  0.10226796     0.11900
H1085       H  0.27847344  0.59620311  0.15037104     0.11800
H1086       H  0.23324214  0.58291139  0.14968785     0.11500
H1087       H  0.18860897  0.59499398  0.14478302     0.12100
H1088       H  0.21090596  0.66333949  0.10751318     0.14000
C1089       C  0.12189742  0.63104222  0.20541050    -0.06000
C1090       C  0.13761727  0.61062072  0.21121054    -0.05900
C1091       C  0.14049844  0.60283877  0.23628390    -0.24100
C1092       C  0.12753111  0.61531856  0.25582072     0.18100
C1093       C  0.10986666  0.63436713  0.24984638     0.15400
C1094       C  0.10726915  0.64222284  0.22461297    -0.19100
C1095       C  0.09690031  0.64676813  0.26946637    -0.20900
C1096       C  0.10341612  0.64232444  0.29476769    -0.13500
C1097       C  0.12290951  0.62544482  0.30067066     0.03200
C1098       C  0.13378436  0.61087214  0.28122755    -0.25600
H1099       H  0.14926423  0.60209939  0.19666351     0.08300
H1100       H  0.15403745  0.58813750  0.24055388     0.11900
H1101       H  0.09532053  0.65820901  0.22015152     0.11800
H1102       H  0.08312977  0.66125950  0.26522211     0.11500
H1103       H  0.09518977  0.65403802  0.30945007     0.12100
H1104       H  0.14912926  0.59808701  0.28572855     0.14000
C1105       C  0.25310232  0.80221566  0.11980717    -0.06000
C1106       C  0.26202244  0.77823029  0.12660145    -0.05900
C1107       C  0.24633817  0.75714337  0.12508882    -0.24100
C1108       C  0.22121208  0.75971511  0.11719988     0.18100
C1109       C  0.21230549  0.78347011  0.10896701     0.15400
C1110       C  0.22853138  0.80464980  0.10990679    -0.19100
C1111       C  0.18690186  0.78583382  0.10157041    -0.20900
C1112       C  0.17017587  0.76542557  0.10406994    -0.13500
C1113       C  0.17864890  0.74221578  0.11369959     0.03200
C1114       C  0.20450403  0.73924773  0.11907340    -0.25600
H1115       H  0.28097221  0.77599496  0.13414486     0.08300
H1116       H  0.25349823  0.73906351  0.13133595     0.11900
H1117       H  0.22148881  0.82316354  0.10490436     0.11800
H1118       H  0.17968913  0.80377728  0.09502886     0.11500
H1119       H  0.15038080  0.76818171  0.09957149     0.12100
H1120       H  0.21140087  0.72144257  0.12635165     0.14000
C1121       C  0.36479409  0.79605718  0.12958342    -0.06000
C1122       C  0.38210907  0.79147058  0.14918202    -0.05900
C1123       C  0.38910763  0.76677033  0.15513723    -0.24100
C1124       C  0.37902378  0.74632545  0.14138813     0.18100
C1125       C  0.36370443  0.75092413  0.11993675     0.15400
C1126       C  0.35656820  0.77582225  0.11423919    -0.19100
C1127       C  0.35392312  0.73041182  0.10601250    -0.20900
C1128       C  0.35736442  0.70568882  0.11457082    -0.13500
C1129       C  0.37037254  0.70119673  0.13728465     0.03200
C1130       C  0.38215749  0.72149146  0.14998446    -0.25600
H1131       H  0.38809224  0.80673357  0.16159959     0.08300
H1132       H  0.40099570  0.76358695  0.17154754     0.11900
H1133       H  0.34275588  0.77923705  0.09944244     0.11800
H1134       H  0.34236060  0.73355960  0.08936946     0.11500
H1135       H  0.34802772  0.69031411  0.10462099     0.12100
H1136       H  0.39224063  0.71810002  0.16754115     0.14000
C1137       C  0.09779832  0.80738802  0.25592321    -0.06000
C1138       C  0.08487000  0.81476089  0.23384548    -0.05900
C1139       C  0.08187033  0.79796151  0.21351839    -0.24100
C1140       C  0.09200402  0.77359758  0.21481808     0.18100
C1141       C  0.10326991  0.76547534  0.23771680     0.15400
C1142       C  0.10568034  0.78224205  0.25821638    -0.19100
C1143       C  0.11377179  0.74134564  0.23913337    -0.20900
C1144       C  0.11512433  0.72626858  0.21753162    -0.13500
C1145       C  0.10559488  0.73479828  0.19425297     0.03200
C1146       C  0.09284227  0.75794029  0.19318324    -0.25600
H1147       H  0.07827490  0.83396284  0.23170698     0.08300
H1148       H  0.07291777  0.80449640  0.19630001     0.11900
H1149       H  0.11549716  0.77623108  0.27518305     0.11800
H1150       H  0.12228531  0.73471970  0.25654498     0.11500
H1151       H  0.12481088  0.70830784  0.21870009     0.12100
H1152       H  0.08564164  0.76463096  0.17521119     0.14000
C1153       C  0.11342367  0.79675334  0.36571241    -0.06000
C1154       C  0.09303190  0.78287984  0.35565707    -0.05900
C1155       C  0.09207682  0.75655863  0.35816314    -0.24100
C1156       C  0.11148697  0.74370426  0.37087772     0.18100
C1157       C  0.13089106  0.75777896  0.38298079     0.15400
C1158       C  0.13181028  0.78417989  0.38016999    -0.19100
C1159       C  0.15019183  0.74503527  0.39590931    -0.20900
C1160       C  0.15131533  0.71865949  0.39528513    -0.13500
C1161       C  0.13334488  0.70456861  0.38157831     0.03200
C1162       C  0.11299355  0.71712275  0.37000745    -0.25600
H1163       H  0.07906782  0.79211974  0.34389702     0.08300
H1164       H  0.07696916  0.74614752  0.34886829     0.11900
H1165       H  0.14790833  0.79471552  0.38747242     0.11800
H1166       H  0.16519079  0.75548240  0.40534632     0.11500
H1167       H  0.16740668  0.70932615  0.40382024     0.12100
H1168       H  0.09939134  0.70634913  0.35892703     0.14000
C1169       C  0.25425254  0.87531058  0.20002025    -0.06000
C1170       C  0.26047781  0.86777139  0.22472381    -0.05900
C1171       C  0.24250486  0.86882527  0.24393983    -0.24100
C1172       C  0.21801448  0.87743629  0.23876656     0.18100
C1173       C  0.21202809  0.88681382  0.21451520     0.15400
C1174       C  0.23028296  0.88585633  0.19530108    -0.19100
C1175       C  0.18745100  0.89561965  0.20957213    -0.20900
C1176       C  0.16856599  0.89355678  0.22798049    -0.13500
C1177       C  0.17410598  0.88258675  0.25139523     0.03200
C1178       C  0.19904603  0.87545702  0.25701817    -0.25600
H1179       H  0.27889388  0.85991003  0.22897269     0.08300
H1180       H  0.24743621  0.86188878  0.26255627     0.11900
H1181       H  0.22534290  0.89200578  0.17640357     0.11800
H1182       H  0.18258277  0.90306144  0.19115124     0.11500
H1183       H  0.14938812  0.89910052  0.22341807     0.12100
H1184       H  0.20337996  0.86720307  0.27525865     0.14000
C1185       C  0.36180917  0.86304634  0.30123918    -0.06000
C1186       C  0.34321657  0.88064446  0.29452647    -0.05900
C1187       C  0.34063426  0.88859671  0.26943604    -0.24100
C1188       C  0.35613916  0.87847292  0.25041806     0.18100
C1189       C  0.37564244  0.86150997  0.25712793     0.15400
C1190       C  0.37855803  0.85414536  0.28258983    -0.19100
C1191       C  0.39038015  0.85051608  0.23796569    -0.20900
C1192       C  0.38449465  0.85461874  0.21244777    -0.13500
C1193       C  0.36431684  0.87037558  0.20558064     0.03200
C1194       C  0.35091206  0.88313019  0.22468561    -0.25600
H1195       H  0.32974521  0.88716447  0.30850719     0.08300
H1196       H  0.32547175  0.90145423  0.26466801     0.11900
H1197       H  0.39234581  0.83985781  0.28750701     0.11800
H1198       H  0.40528624  0.83733902  0.24266818     0.11500
H1199       H  0.39446043  0.84395104  0.19805709     0.12100
H1200       H  0.33464092  0.89444869  0.21955292     0.14000
C1201       C  0.38381304  0.75407010  0.30654238    -0.06000
C1202       C  0.38076500  0.76279877  0.28165500    -0.05900
C1203       C  0.38334341  0.74641880  0.26110349    -0.24100
C1204       C  0.38882382  0.72092402  0.26504682     0.18100
C1205       C  0.39379962  0.71219311  0.28979314     0.15400
C1206       C  0.39153066  0.72895533  0.31046280    -0.19100
C1207       C  0.39918700  0.68649657  0.29347081    -0.20900
C1208       C  0.39761404  0.66938174  0.27315045    -0.13500
C1209       C  0.39073102  0.67782761  0.24899575     0.03200
C1210       C  0.38749927  0.70373098  0.24485780    -0.25600
H1211       H  0.37524760  0.78213296  0.27808861     0.08300
H1212       H  0.37978294  0.75342978  0.24220675     0.11900
H1213       H  0.39398501  0.72202057  0.32956365     0.11800
H1214       H  0.40318132  0.67943134  0.31225188     0.11500
H1215       H  0.39985055  0.64939467  0.27667372     0.12100
H1216       H  0.38207243  0.71023536  0.22618548     0.14000
C1217       C  0.28651351  0.84929123  0.38076385    -0.06000
C1218       C  0.27038809  0.83494385  0.39618649    -0.05900
C1219       C  0.24419130  0.83890385  0.39607636    -0.24100
C1220       C  0.23340315  0.85680086  0.37987421     0.18100
C1221       C  0.24952650  0.87231984  0.36526838     0.15400
C1222       C  0.27603502  0.86878694  0.36616152    -0.19100
C1223       C  0.23874170  0.88950520  0.34830371    -0.20900
C1224       C  0.21253830  0.88981201  0.34428777    -0.13500
C1225       C  0.19642743  0.87355386  0.35765849     0.03200
C1226       C  0.20688914  0.85783269  0.37630004    -0.25600
H1227       H  0.27798191  0.81953402  0.40721588     0.08300
H1228       H  0.23225491  0.82677914  0.40739574     0.11900
H1229       H  0.28818636  0.87942236  0.35361390     0.11800
H1230       H  0.25068041  0.90151787  0.33687224     0.11500
H1231       H  0.20492729  0.90167476  0.32949228     0.12100
H1232       H  0.19470970  0.84466450  0.38613201     0.14000
C1233       C  0.31491147  0.74278725  0.38958646    -0.06000
C1234       C  0.32248658  0.71821514  0.39558693    -0.05900
C1235       C  0.30437817  0.69898420  0.39752357    -0.24100
C1236       C  0.27866680  0.70430794  0.39337616     0.18100
C1237       C  0.27102621  0.72955568  0.38949108     0.15400
C1238       C  0.28918525  0.74861030  0.38784635    -0.19100
C1239       C  0.24554337  0.73515249  0.38530440    -0.20900
C1240       C  0.22798493  0.71571751  0.38276384    -0.13500
C1241       C  0.23557591  0.69037396  0.38457252     0.03200
C1242       C  0.26074711  0.68479321  0.39117340    -0.25600
H1243       H  0.34239200  0.71358954  0.39694635     0.08300
H1244       H  0.31058173  0.67980687  0.40077405     0.11900
H1245       H  0.28346039  0.76773044  0.38337714     0.11800
H1246       H  0.23941669  0.75445607  0.38262157     0.11500
H1247       H  0.20862985  0.72055944  0.37813092     0.12100
H1248       H  0.26674874  0.66532800  0.39281188     0.14000
C1249       C  0.31099369  0.94919952  0.13345545    -0.06000
C1250       C  0.28749764  0.96083751  0.13804867    -0.05900
C1251       C  0.28522577  0.98704959  0.13886063    -0.24100
C1252       C  0.30640901  0.00246100  0.13524138     0.18100
C1253       C  0.33036485  0.99129225  0.13135261     0.15400
C1254       C  0.33254048  0.96467840  0.13038015    -0.19100
C1255       C  0.35156095  0.00703525  0.12825337    -0.20900
C1256       C  0.34892068  0.03341279  0.12854473    -0.13500
C1257       C  0.32499666  0.04459859  0.13159305     0.03200
C1258       C  0.30386203  0.02887417  0.13516614    -0.25600
H1259       H  0.27055179  0.94963937  0.14067366     0.08300
H1260       H  0.26675703  0.99527860  0.14207955     0.11900
H1261       H  0.35082137  0.95610451  0.12700175     0.11800
H1262       H  0.37014828  0.99896128  0.12538642     0.11500
H1263       H  0.36552657  0.04507345  0.12576736     0.12100
H1264       H  0.28534221  0.03721229  0.13784575     0.14000
C1265       C  0.25185281  0.18810656  0.12166996    -0.06000
C1266       C  0.25843019  0.21341050  0.12671459    -0.05900
C1267       C  0.24043712  0.23245438  0.12523450    -0.24100
C1268       C  0.21546832  0.22666123  0.11856491     0.18100
C1269       C  0.20875504  0.20165509  0.11182286     0.15400
C1270       C  0.22708625  0.18243605  0.11333923    -0.19100
C1271       C  0.18353305  0.19625555  0.10501031    -0.20900
C1272       C  0.16496018  0.21512010  0.10648233    -0.13500
C1273       C  0.17147832  0.23948048  0.11481243     0.03200
C1274       C  0.19687078  0.24530474  0.11992385    -0.25600
H1275       H  0.27734393  0.21846035  0.13291990     0.08300
H1276       H  0.24585999  0.25159826  0.13022991     0.11900
H1277       H  0.22176222  0.16305060  0.10931429     0.11800
H1278       H  0.17799489  0.17726408  0.09961531     0.11500
H1279       H  0.14537959  0.21032612  0.10265873     0.12100
H1280       H  0.20191650  0.26417889  0.12630329     0.14000
C1281       C  0.11842555  0.04662207  0.33503610    -0.06000
C1282       C  0.11635202  0.03570693  0.35918602    -0.05900
C1283       C  0.11622634  0.00939744  0.36214943    -0.24100
C1284       C  0.11807926  0.99332466  0.34101766     0.18100
C1285       C  0.12020087  0.00412134  0.31668257     0.15400
C1286       C  0.12044162  0.03052883  0.31385860    -0.19100
C1287       C  0.12177786  0.98833744  0.29543484    -0.20900
C1288       C  0.12070217  0.96219038  0.29810471    -0.13500
C1289       C  0.11826804  0.95100087  0.32208048     0.03200
C1290       C  0.11740832  0.96673862  0.34365035    -0.25600
H1291       H  0.11477342  0.04753794  0.37588960     0.08300
H1292       H  0.11451381  0.00163523  0.38097881     0.11900
H1293       H  0.12201100  0.03852121  0.29509702     0.11800
H1294       H  0.12348861  0.99621832  0.27664674     0.11500
H1295       H  0.12162077  0.95058350  0.28117325     0.12100
H1296       H  0.11535540  0.95840767  0.36220420     0.14000
C1297       C  0.18082366  0.11136503  0.25918902    -0.06000
C1298       C  0.17108948  0.10383048  0.23548203    -0.05900
C1299       C  0.18711692  0.10077022  0.21470897    -0.24100
C1300       C  0.21311877  0.10538073  0.21726099     0.18100
C1301       C  0.22321363  0.11155620  0.24138506     0.15400
C1302       C  0.20707393  0.11416495  0.26220196    -0.19100
C1303       C  0.24907571  0.11673109  0.24400180    -0.20900
C1304       C  0.26442177  0.11771603  0.22266192    -0.13500
C1305       C  0.25431860  0.11285761  0.19853095     0.03200
C1306       C  0.22891936  0.10562117  0.19592243    -0.25600
H1307       H  0.15091606  0.10145066  0.23266591     0.08300
H1308       H  0.17902736  0.09594156  0.19643669     0.11900
H1309       H  0.21482957  0.11982541  0.28040190     0.11800
H1310       H  0.25713944  0.12138705  0.26233136     0.11500
H1311       H  0.28403840  0.12337259  0.22483026     0.12100
H1312       H  0.22108486  0.10226491  0.17720730     0.14000
C1313       C  0.09988925  0.24718875  0.19160328    -0.06000
C1314       C  0.09075771  0.22341403  0.18369273    -0.05900
C1315       C  0.08878402  0.20349881  0.20077287    -0.24100
C1316       C  0.09598725  0.20693519  0.22608560     0.18100
C1317       C  0.10361177  0.23121207  0.23459186     0.15400
C1318       C  0.10524275  0.25122438  0.21737696    -0.19100
C1319       C  0.11122683  0.23464599  0.25978371    -0.20900
C1320       C  0.11326934  0.21390725  0.27576655    -0.13500
C1321       C  0.10714763  0.18952241  0.26705054     0.03200
C1322       C  0.09740667  0.18622416  0.24255639    -0.25600
H1323       H  0.08645036  0.21974572  0.16395828     0.08300
H1324       H  0.08280173  0.18510535  0.19389878     0.11900
H1325       H  0.11223380  0.26945748  0.22375544     0.11800
H1326       H  0.11697517  0.25309855  0.26671072     0.11500
H1327       H  0.12081637  0.21670016  0.29468009     0.12100
H1328       H  0.09303384  0.16736691  0.23570578     0.14000
C1329       C  0.20224233  0.12024444  0.36909895    -0.06000
C1330       C  0.21610476  0.10172938  0.35609027    -0.05900
C1331       C  0.24261603  0.10162748  0.35721585    -0.24100
C1332       C  0.25564304  0.12009749  0.37137175     0.18100
C1333       C  0.24169138  0.13736604  0.38631452     0.15400
C1334       C  0.21510158  0.13734367  0.38502228    -0.19100
C1335       C  0.25456595  0.15579536  0.40056694    -0.20900
C1336       C  0.28081773  0.15831879  0.39862427    -0.13500
C1337       C  0.29466087  0.14255609  0.38238718     0.03200
C1338       C  0.28210734  0.12296745  0.36929349    -0.25600
H1339       H  0.20655719  0.08882563  0.34322457     0.08300
H1340       H  0.25292678  0.08812764  0.34574738     0.11900
H1341       H  0.20449952  0.15204354  0.39462330     0.11800
H1342       H  0.24419732  0.16917093  0.41213328     0.11500
H1343       H  0.29010708  0.17388223  0.40833129     0.12100
H1344       H  0.29265442  0.11113075  0.35627780     0.14000
C1345       C  0.35862397  0.11875721  0.20852133    -0.06000
C1346       C  0.34426435  0.10232930  0.22362140    -0.05900
C1347       C  0.34673496  0.10251113  0.24997791    -0.24100
C1348       C  0.36348585  0.11938105  0.26187773     0.18100
C1349       C  0.37969683  0.13437070  0.24679844     0.15400
C1350       C  0.37738520  0.13374244  0.22013432    -0.19100
C1351       C  0.39603496  0.15166124  0.25870101    -0.20900
C1352       C  0.39454540  0.15582928  0.28483568    -0.13500
C1353       C  0.37714466  0.14244890  0.29974474     0.03200
C1354       C  0.36250700  0.12331482  0.28833554    -0.25600
H1355       H  0.32930841  0.09104694  0.21512444     0.08300
H1356       H  0.33415756  0.09084517  0.26108865     0.11900
H1357       H  0.38798687  0.14702856  0.20877911     0.11800
H1358       H  0.40864393  0.16330046  0.24759965     0.11500
H1359       H  0.40566303  0.17097182  0.29318886     0.12100
H1360       H  0.34851931  0.11343568  0.29952904     0.14000
C1361       C  0.36591315  0.54340634  0.16924991    -0.06000
C1362       C  0.36129150  0.53285538  0.14516153    -0.05900
C1363       C  0.35996916  0.50657871  0.14181812    -0.24100
C1364       C  0.36364025  0.49038428  0.16243708     0.18100
C1365       C  0.36805614  0.50097593  0.18670270     0.15400
C1366       C  0.36888618  0.52722560  0.18996654    -0.19100
C1367       C  0.37211501  0.48518922  0.20737099    -0.20900
C1368       C  0.37239428  0.45912868  0.20407322    -0.13500
C1369       C  0.36841367  0.44809791  0.18005757     0.03200
C1370       C  0.36355594  0.46388853  0.15926671    -0.25600
H1371       H  0.35877805  0.54492400  0.12889924     0.08300
H1372       H  0.35649924  0.49893428  0.12304956     0.11900
H1373       H  0.37257524  0.53504390  0.20864644     0.11800
H1374       H  0.37545627  0.49301063  0.22610162     0.11500
H1375       H  0.37584220  0.44754423  0.22052911     0.12100
H1376       H  0.36042915  0.45566388  0.14067506     0.14000
C1377       C  0.36930198  0.29509531  0.13652802    -0.06000
C1378       C  0.38661661  0.28337817  0.15283365    -0.05900
C1379       C  0.38865256  0.25707453  0.15337976    -0.24100
C1380       C  0.37363820  0.24205262  0.13730962     0.18100
C1381       C  0.35784678  0.25376922  0.11919678     0.15400
C1382       C  0.35547836  0.28026857  0.11917855    -0.19100
C1383       C  0.34327321  0.23867880  0.10275515    -0.20900
C1384       C  0.34281594  0.21241325  0.10554245    -0.13500
C1385       C  0.35663312  0.20085594  0.12498242     0.03200
C1386       C  0.37267022  0.21567862  0.14031099    -0.25600
H1387       H  0.39699345  0.29449409  0.16670845     0.08300
H1388       H  0.40096708  0.24847297  0.16728417     0.11900
H1389       H  0.34175003  0.28921233  0.10689511     0.11800
H1390       H  0.33120132  0.24725946  0.08863199     0.11500
H1391       H  0.32996558  0.20132782  0.09390975     0.12100
H1392       H  0.38307292  0.20686367  0.15559017     0.14000
C1393       C  0.28709973  0.37506479  0.13785419    -0.06000
C1394       C  0.27093059  0.39278386  0.14920614    -0.05900
C1395       C  0.24470068  0.39117813  0.14581711    -0.24100
C1396       C  0.23412231  0.37119994  0.13176699     0.18100
C1397       C  0.25035690  0.35414244  0.11901849     0.15400
C1398       C  0.27678533  0.35658738  0.12164412    -0.19100
C1399       C  0.23990756  0.33342814  0.10602316    -0.20900
C1400       C  0.21397769  0.32843647  0.10749449    -0.13500
C1401       C  0.19786746  0.34448515  0.12123160     0.03200
C1402       C  0.20783331  0.36657031  0.13228616    -0.25600
H1403       H  0.27850814  0.40672005  0.16230040     0.08300
H1404       H  0.23264770  0.40437451  0.15581839     0.11900
H1405       H  0.28910148  0.34231419  0.11359978     0.11800
H1406       H  0.25198496  0.32012353  0.09618874     0.11500
H1407       H  0.20662992  0.31123092  0.09900064     0.12100
H1408       H  0.19558355  0.37869318  0.14338650     0.14000
C1409       C  0.37876702  0.29942164  0.23492228    -0.06000
C1410       C  0.36903620  0.27538638  0.22888945    -0.05900
C1411       C  0.36974234  0.25609477  0.24660024    -0.24100
C1412       C  0.38015691  0.26059608  0.27057897     0.18100
C1413       C  0.39220562  0.28387768  0.27600325     0.15400
C1414       C  0.39170139  0.30312134  0.25794844    -0.19100
C1415       C  0.40277739  0.28812371  0.30007809    -0.20900
C1416       C  0.39943799  0.27033253  0.31922074    -0.13500
C1417       C  0.38548635  0.24827456  0.31436657     0.03200
C1418       C  0.37703507  0.24291142  0.28975563    -0.25600
H1419       H  0.35941124  0.27190129  0.21106661     0.08300
H1420       H  0.36082666  0.23817449  0.24206943     0.11900
H1421       H  0.39957539  0.32148490  0.26263829     0.11800
H1422       H  0.41236769  0.30572016  0.30446748     0.11500
H1423       H  0.40627622  0.27453098  0.33813516     0.12100
H1424       H  0.36668774  0.22557587  0.28592730     0.14000
C1425       C  0.16179682  0.54758765  0.37473714    -0.06000
C1426       C  0.13748676  0.53666766  0.37376319    -0.05900
C1427       C  0.13438940  0.51030405  0.37332550    -0.24100
C1428       C  0.15554811  0.49429128  0.37366252     0.18100
C1429       C  0.17999717  0.50518916  0.37421753     0.15400
C1430       C  0.18294190  0.53154412  0.37483916    -0.19100
C1431       C  0.20127060  0.48959103  0.37425159    -0.20900
C1432       C  0.19851808  0.46343815  0.37391520    -0.13500
C1433       C  0.17440818  0.45201353  0.37368343     0.03200
C1434       C  0.15284239  0.46768305  0.37352978    -0.25600
H1435       H  0.12082839  0.54851174  0.37365305     0.08300
H1436       H  0.11544391  0.50245567  0.37280985     0.11900
H1437       H  0.20183605  0.53955907  0.37539951     0.11800
H1438       H  0.22014909  0.49762783  0.37461999     0.11500
H1439       H  0.21553235  0.45210485  0.37411179     0.12100
H1440       H  0.13413238  0.45926403  0.37327955     0.14000
C1441       C  0.12509989  0.36271419  0.20053766    -0.06000
C1442       C  0.14676766  0.37679144  0.20692490    -0.05900
C1443       C  0.15063029  0.38548533  0.23168081    -0.24100
C1444       C  0.13317454  0.37961151  0.25069834     0.18100
C1445       C  0.11057244  0.36667457  0.24422398     0.15400
C1446       C  0.10648464  0.35861756  0.21901405    -0.19100
C1447       C  0.09366124  0.35993063  0.26350014    -0.20900
C1448       C  0.10012398  0.36391856  0.28898206    -0.13500
C1449       C  0.12319345  0.37539344  0.29559240     0.03200
C1450       C  0.13911943  0.38421898  0.27630809    -0.25600
H1451       H  0.16152207  0.37966505  0.19303575     0.08300
H1452       H  0.16808977  0.39527905  0.23628262     0.11900
H1453       H  0.09012041  0.34709487  0.21435272     0.11800
H1454       H  0.07631741  0.34991259  0.25898111     0.11500
H1455       H  0.08802662  0.35625847  0.30356280     0.12100
H1456       H  0.15738136  0.39223206  0.28132344     0.14000
C1457       C  0.12660689  0.20299300  0.37285968    -0.06000
C1458       C  0.14304023  0.21047413  0.39239268    -0.05900
C1459       C  0.14481958  0.23593680  0.39944956    -0.24100
C1460       C  0.13015183  0.25416096  0.38700874     0.18100
C1461       C  0.11194684  0.24642977  0.36889586     0.15400
C1462       C  0.11030680  0.22083755  0.36193862    -0.19100
C1463       C  0.09745687  0.26469459  0.35630887    -0.20900
C1464       C  0.10288795  0.29041076  0.35957706    -0.13500
C1465       C  0.12271767  0.29809747  0.37556156     0.03200
C1466       C  0.13520298  0.27999407  0.39040797    -0.25600
H1467       H  0.15597993  0.19700051  0.40067984     0.08300
H1468       H  0.15882387  0.24156279  0.41341500     0.11900
H1469       H  0.09782668  0.21507916  0.34661313     0.11800
H1470       H  0.08332860  0.25906662  0.34247187     0.11500
H1471       H  0.09348242  0.30401730  0.34759241     0.12100
H1472       H  0.15086656  0.28586322  0.40240666     0.14000
C1473       C  0.30737481  0.24937877  0.38859840    -0.06000
C1474       C  0.31479671  0.27299427  0.39849632    -0.05900
C1475       C  0.29723489  0.29243992  0.40125171    -0.24100
C1476       C  0.27203481  0.28866621  0.39387614     0.18100
C1477       C  0.26410473  0.26449049  0.38537794     0.15400
C1478       C  0.28172433  0.24491789  0.38320367    -0.19100
C1479       C  0.23907938  0.26075424  0.37743514    -0.20900
C1480       C  0.22269350  0.28122249  0.37586028    -0.13500
C1481       C  0.23087962  0.30552767  0.38285376     0.03200
C1482       C  0.25511876  0.30901721  0.39308047    -0.25600
H1483       H  0.33443121  0.27684629  0.40303583     0.08300
H1484       H  0.30363227  0.31076333  0.40793370     0.11900
H1485       H  0.27572819  0.22673676  0.37574059     0.11800
H1486       H  0.23262520  0.24234307  0.37105156     0.11500
H1487       H  0.20388791  0.27830469  0.36811417     0.12100
H1488       H  0.26146614  0.32784314  0.39825850     0.14000
C1489       C  0.31092269  0.38070837  0.24976824    -0.06000
C1490       C  0.31883323  0.38863455  0.27392846    -0.05900
C1491       C  0.30117766  0.39124225  0.29353918    -0.24100
C1492       C  0.27540387  0.38618227  0.28910302     0.18100
C1493       C  0.26728460  0.37996288  0.26430343     0.15400
C1494       C  0.28505031  0.37721944  0.24490779    -0.19100
C1495       C  0.24166324  0.37529877  0.25948990    -0.20900
C1496       C  0.22439582  0.37500796  0.27931771    -0.13500
C1497       C  0.23237005  0.37928423  0.30443380     0.03200
C1498       C  0.25781865  0.38590179  0.30909508    -0.25600
H1499       H  0.33875158  0.39141151  0.27795899     0.08300
H1500       H  0.30779044  0.39627744  0.31234297     0.11900
H1501       H  0.27886597  0.37136304  0.22615508     0.11800
H1502       H  0.23511060  0.37087131  0.24050476     0.11500
H1503       H  0.20489538  0.37025457  0.27503624     0.12100
H1504       H  0.26420658  0.38940760  0.32831924     0.14000
C1505       C  0.44786361  0.61774734  0.16608071    -0.06000
C1506       C  0.45904115  0.62255806  0.14245549    -0.05900
C1507       C  0.48552453  0.62297557  0.13982034    -0.24100
C1508       C  0.50138479  0.61895893  0.16083985     0.18100
C1509       C  0.49021789  0.61434401  0.18464197     0.15400
C1510       C  0.46377221  0.61353739  0.18703262    -0.19100
C1511       C  0.50563395  0.61084211  0.20588479    -0.20900
C1512       C  0.53187411  0.61212571  0.20377025    -0.13500
C1513       C  0.54353008  0.61657146  0.18030902     0.03200
C1514       C  0.52809594  0.61972682  0.15870219    -0.25600
H1515       H  0.44730510  0.62585999  0.12598157     0.08300
H1516       H  0.49358769  0.62663275  0.12138271     0.11900
H1517       H  0.45556946  0.61001750  0.20545812     0.11800
H1518       H  0.49737990  0.60728857  0.22426944     0.11500
H1519       H  0.54315279  0.60937164  0.22067519     0.12100
H1520       H  0.53677891  0.62325494  0.14051400     0.14000
C1521       C  0.69054019  0.61414115  0.23870245    -0.06000
C1522       C  0.71418778  0.62115869  0.22893883    -0.05900
C1523       C  0.73600725  0.61894712  0.24351498    -0.24100
C1524       C  0.73444472  0.61021509  0.26836341     0.18100
C1525       C  0.71094123  0.60179340  0.27798794     0.15400
C1526       C  0.68905429  0.60336241  0.26283339    -0.19100
C1527       C  0.70955384  0.59355695  0.30310418    -0.20900
C1528       C  0.73070507  0.59553376  0.31900481    -0.13500
C1529       C  0.75363561  0.60549946  0.30993867     0.03200
C1530       C  0.75566438  0.61154113  0.28422227    -0.25600
H1531       H  0.71564280  0.62917801  0.21018587     0.08300
H1532       H  0.75388304  0.62528971  0.23579550     0.11900
H1533       H  0.67078360  0.59802083  0.27040891     0.11800
H1534       H  0.69180906  0.58686868  0.31081822     0.11500
H1535       H  0.72868386  0.59057788  0.33874155     0.12100
H1536       H  0.77328072  0.61905339  0.27692682     0.14000
C1537       C  0.44801683  0.82445387  0.37640132    -0.06000
C1538       C  0.45948904  0.84818065  0.37318078    -0.05900
C1539       C  0.48603679  0.85057746  0.37320117    -0.24100
C1540       C  0.50158642  0.82935739  0.37690695     0.18100
C1541       C  0.49008724  0.80560049  0.38072865     0.15400
C1542       C  0.46362444  0.80329875  0.38022491    -0.19100
C1543       C  0.50518992  0.78437983  0.38503010    -0.20900
C1544       C  0.53150146  0.78649687  0.38539133    -0.13500
C1545       C  0.54350958  0.80982826  0.38120095     0.03200
C1546       C  0.52831777  0.83132390  0.37691806    -0.25600
H1547       H  0.44795599  0.86477503  0.37027266     0.08300
H1548       H  0.49439717  0.86902528  0.37035834     0.11900
H1549       H  0.45513206  0.78489455  0.38313179     0.11800
H1550       H  0.49663600  0.76604382  0.38808918     0.11500
H1551       H  0.54251475  0.76960439  0.38860780     0.12100
H1552       H  0.53722261  0.84946914  0.37374884     0.14000
C1553       C  0.61228104  0.69135002  0.23488173    -0.06000
C1554       C  0.61800405  0.71627202  0.22795143    -0.05900
C1555       C  0.61647827  0.73573801  0.24573685    -0.24100
C1556       C  0.60945009  0.73043192  0.27066931     0.18100
C1557       C  0.60132085  0.70589310  0.27717449     0.15400
C1558       C  0.60237692  0.68656724  0.25905200    -0.19100
C1559       C  0.59432105  0.70067614  0.30221719    -0.20900
C1560       C  0.59759304  0.71900837  0.32109179    -0.13500
C1561       C  0.60778868  0.74259337  0.31493314     0.03200
C1562       C  0.61239943  0.74868239  0.28959969    -0.25600
H1563       H  0.62514806  0.72049535  0.20926319     0.08300
H1564       H  0.62233159  0.75459525  0.24041729     0.11900
H1565       H  0.59746497  0.66746413  0.26445315     0.11800
H1566       H  0.58779732  0.68201857  0.30744373     0.11500
H1567       H  0.59384285  0.71423028  0.34061836     0.12100
H1568       H  0.61992294  0.76714874  0.28490021     0.14000
C1569       C  0.69379081  0.75232887  0.38163708    -0.06000
C1570       C  0.71795327  0.76073757  0.37436382    -0.05900
C1571       C  0.73864361  0.74455805  0.37499323    -0.24100
C1572       C  0.73564915  0.71961953  0.38294818     0.18100
C1573       C  0.71197290  0.71129777  0.39210616     0.15400
C1574       C  0.69112126  0.72781176  0.39153123    -0.19100
C1575       C  0.70936535  0.68619498  0.40023322    -0.20900
C1576       C  0.72948472  0.66915410  0.39758322    -0.13500
C1577       C  0.75233875  0.67706851  0.38674253     0.03200
C1578       C  0.75559391  0.70251600  0.38041146    -0.25600
H1579       H  0.72071580  0.77957560  0.36702365     0.08300
H1580       H  0.75678108  0.75126394  0.36821882     0.11900
H1581       H  0.67265501  0.72112557  0.39738091     0.11800
H1582       H  0.69145133  0.67946474  0.40751642     0.11500
H1583       H  0.72666072  0.64952295  0.40243304     0.12100
H1584       H  0.77332362  0.70867892  0.37214543     0.14000
C1585       C  0.63352021  0.78820543  0.12138356    -0.06000
C1586       C  0.64997392  0.77559866  0.10485000    -0.05900
C1587       C  0.64916512  0.74933402  0.10244543    -0.24100
C1588       C  0.63178084  0.73521932  0.11652327     0.18100
C1589       C  0.61389966  0.74785341  0.13190320     0.15400
C1590       C  0.61504452  0.77435709  0.13444648    -0.19100
C1591       C  0.59645441  0.73358175  0.14583770    -0.20900
C1592       C  0.59797076  0.70717251  0.14604023    -0.13500
C1593       C  0.61703406  0.69464745  0.13248582     0.03200
C1594       C  0.63331087  0.70873590  0.11704397    -0.25600
H1595       H  0.66466968  0.78597500  0.09511193     0.08300
H1596       H  0.66298012  0.73998787  0.09055008     0.11900
H1597       H  0.60268189  0.78400736  0.14765351     0.11800
H1598       H  0.58257147  0.74286505  0.15769777     0.11500
H1599       H  0.58575551  0.69669521  0.15863450     0.12100
H1600       H  0.64843289  0.69919000  0.10702220     0.14000
C1601       C  0.63090830  0.86893584  0.20459256    -0.06000
C1602       C  0.64329211  0.88669904  0.22015532    -0.05900
C1603       C  0.63905871  0.88727374  0.24623062    -0.24100
C1604       C  0.62292243  0.86952455  0.25733379     0.18100
C1605       C  0.60923064  0.85247771  0.24163642     0.15400
C1606       C  0.61294386  0.85263272  0.21523444    -0.19100
C1607       C  0.59402428  0.83396405  0.25281106    -0.20900
C1608       C  0.59427395  0.83086670  0.27905708    -0.13500
C1609       C  0.60912966  0.84663453  0.29467072     0.03200
C1610       C  0.62231425  0.86683730  0.28382689    -0.25600
H1611       H  0.65752693  0.89910059  0.21227698     0.08300
H1612       H  0.64978888  0.90040720  0.25788149     0.11900
H1613       H  0.60392999  0.83839831  0.20339939     0.11800
H1614       H  0.58348977  0.82064746  0.24118690     0.11500
H1615       H  0.58448956  0.81479795  0.28705153     0.12100
H1616       H  0.63450716  0.87846700  0.29567432     0.14000
C1617       C  0.03979795  0.66276129  0.12947999    -0.06000
C1618       C  0.02793740  0.63965250  0.12369343    -0.05900
C1619       C  0.00140327  0.63787856  0.12265863    -0.24100
C1620       C  0.98627111  0.65911715  0.12772836     0.18100
C1621       C  0.99816061  0.68206410  0.13474203     0.15400
C1622       C  0.02468050  0.68375369  0.13544297    -0.19100
C1623       C  0.98338546  0.70322752  0.14034103    -0.20900
C1624       C  0.95710608  0.70206741  0.13815142    -0.13500
C1625       C  0.94480463  0.67974345  0.13020334     0.03200
C1626       C  0.95960119  0.65807508  0.12543344    -0.25600
H1627       H  0.03918878  0.62323904  0.11899708     0.08300
H1628       H  0.99274244  0.62002980  0.11742046     0.11900
H1629       H  0.03362739  0.70161919  0.14022650     0.11800
H1630       H  0.99219242  0.72088842  0.14601178     0.11500
H1631       H  0.94641750  0.71900275  0.14226816     0.12100
H1632       H  0.95048654  0.64065124  0.11952338     0.14000
C1633       C  0.79904019  0.73859423  0.11095354    -0.06000
C1634       C  0.77511285  0.72853010  0.11663266    -0.05900
C1635       C  0.75355544  0.74346795  0.11527288    -0.24100
C1636       C  0.75567743  0.76888163  0.10862117     0.18100
C1637       C  0.77935277  0.77865747  0.10083734     0.15400
C1638       C  0.80097008  0.76321820  0.10159426    -0.19100
C1639       C  0.78130276  0.80421851  0.09444829    -0.20900
C1640       C  0.76065006  0.82032478  0.09786774    -0.13500
C1641       C  0.73767003  0.81107335  0.10751310     0.03200
C1642       C  0.73496033  0.78504835  0.11156274    -0.25600
H1643       H  0.77331625  0.70940454  0.12357883     0.08300
H1644       H  0.73553347  0.73558606  0.12098624     0.11900
H1645       H  0.81942928  0.77102033  0.09729653     0.11800
H1646       H  0.79915459  0.81203667  0.08818213     0.11500
H1647       H  0.76313510  0.84027742  0.09428679     0.12100
H1648       H  0.71724008  0.77760292  0.11866553     0.14000
C1649       C  0.78920141  0.63583457  0.11036284    -0.06000
C1650       C  0.77348182  0.65076777  0.09506249    -0.05900
C1651       C  0.74723279  0.64737897  0.09500269    -0.24100
C1652       C  0.73611236  0.62922287  0.11063674     0.18100
C1653       C  0.75187120  0.61259259  0.12438853     0.15400
C1654       C  0.77841132  0.61572653  0.12381215    -0.19100
C1655       C  0.74074593  0.59499927  0.14067482    -0.20900
C1656       C  0.71467748  0.59560125  0.14523143    -0.13500
C1657       C  0.69909764  0.61326034  0.13308444     0.03200
C1658       C  0.70974750  0.62920280  0.11481212    -0.25600
H1659       H  0.78134938  0.66672862  0.08502740     0.08300
H1660       H  0.73556097  0.66031714  0.08432455     0.11900
H1661       H  0.79027520  0.60466014  0.13628305     0.11800
H1662       H  0.75241494  0.58210929  0.15140986     0.11500
H1663       H  0.70693431  0.58359909  0.15982601     0.12100
H1664       H  0.69801888  0.64346668  0.10603347     0.14000
C1665       C  0.86410847  0.62619441  0.19471569    -0.06000
C1666       C  0.84631236  0.60798386  0.20205141    -0.05900
C1667       C  0.84378215  0.60129988  0.22748043    -0.24100
C1668       C  0.85850395  0.61334391  0.24613835     0.18100
C1669       C  0.87753809  0.63063230  0.23881580     0.15400
C1670       C  0.88050538  0.63662898  0.21303559    -0.19100
C1671       C  0.89156082  0.64341079  0.25757297    -0.20900
C1672       C  0.88542270  0.64062314  0.28318038    -0.13500
C1673       C  0.86566160  0.62454502  0.29048651     0.03200
C1674       C  0.85289797  0.61021195  0.27195769    -0.25600
H1675       H  0.83309552  0.60028251  0.18829205     0.08300
H1676       H  0.82906170  0.58807859  0.23272156     0.11900
H1677       H  0.89364007  0.65137039  0.20758940     0.11800
H1678       H  0.90612114  0.65682310  0.25237518     0.11500
H1679       H  0.89496678  0.65230568  0.29717511     0.12100
H1680       H  0.83707500  0.59842021  0.27748712     0.14000
C1681       C  0.94014128  0.87913424  0.31801229    -0.06000
C1682       C  0.95104467  0.88078270  0.29378229    -0.05900
C1683       C  0.97720814  0.88025666  0.29055001    -0.24100
C1684       C  0.99331902  0.87831307  0.31149430     0.18100
C1685       C  0.98289453  0.87689632  0.33605912     0.15400
C1686       C  0.95628532  0.87705139  0.33920356    -0.19100
C1687       C  0.99936572  0.87549701  0.35693803    -0.20900
C1688       C  0.02572304  0.87537572  0.35347961    -0.13500
C1689       C  0.03621048  0.87634775  0.32905988     0.03200
C1690       C  0.01970625  0.87784013  0.30815725    -0.25600
H1691       H  0.93924174  0.88228370  0.27706276     0.08300
H1692       H  0.98484596  0.88143825  0.27158896     0.11900
H1693       H  0.94823105  0.87597225  0.35799323     0.11800
H1694       H  0.99187737  0.87453839  0.37596069     0.11500
H1695       H  0.03791779  0.87427358  0.36993710     0.12100
H1696       H  0.02739373  0.87888632  0.28919744     0.14000
C1697       C  0.87240710  0.81709326  0.25010542    -0.06000
C1698       C  0.88524974  0.82324270  0.22777029    -0.05900
C1699       C  0.88833040  0.80502466  0.20863331    -0.24100
C1700       C  0.87871493  0.78045507  0.21172437     0.18100
C1701       C  0.86730157  0.77387295  0.23490255     0.15400
C1702       C  0.86434601  0.79212867  0.25386717    -0.19100
C1703       C  0.85788449  0.74944148  0.23838913    -0.20900
C1704       C  0.85841040  0.73197505  0.21859651    -0.13500
C1705       C  0.86830680  0.73859024  0.19488175     0.03200
C1706       C  0.87920587  0.76269918  0.19179168    -0.25600
H1707       H  0.89171036  0.84237337  0.22459830     0.08300
H1708       H  0.89738601  0.81038401  0.19110481     0.11900
H1709       H  0.85479929  0.78712941  0.27128014     0.11800
H1710       H  0.84927267  0.74410070  0.25615675     0.11500
H1711       H  0.85000433  0.71357367  0.22159303     0.12100
H1712       H  0.88701945  0.76800762  0.17364655     0.14000
C1713       C  0.79074487  0.88571106  0.26029551    -0.06000
C1714       C  0.76617208  0.87876932  0.26771332    -0.05900
C1715       C  0.74618919  0.87935248  0.25048045    -0.24100
C1716       C  0.75045397  0.88676586  0.22548960     0.18100
C1717       C  0.77457104  0.89573010  0.21826393     0.15400
C1718       C  0.79457790  0.89538107  0.23584492    -0.19100
C1719       C  0.77860077  0.90319079  0.19311622    -0.20900
C1720       C  0.75951456  0.89985472  0.17492465    -0.13500
C1721       C  0.73631786  0.88904518  0.18177407     0.03200
C1722       C  0.73149199  0.88362067  0.20722782    -0.25600
H1723       H  0.76259100  0.87162234  0.28652522     0.08300
H1724       H  0.72770353  0.87276345  0.25635633     0.11900
H1725       H  0.81339208  0.90094382  0.22994547     0.11800
H1726       H  0.79688555  0.91030710  0.18726242     0.11500
H1727       H  0.76346082  0.90403662  0.15529361     0.12100
H1728       H  0.71345031  0.87539361  0.21248956     0.14000
C1729       C  0.78768928  0.87609341  0.36719630    -0.06000
C1730       C  0.78098857  0.86530407  0.39039880    -0.05900
C1731       C  0.75543401  0.86203085  0.39677533    -0.24100
C1732       C  0.73625346  0.86872587  0.37960034     0.18100
C1733       C  0.74293065  0.88111893  0.35693347     0.15400
C1734       C  0.76855865  0.88512082  0.35114678    -0.19100
C1735       C  0.72409190  0.88693856  0.33919053    -0.20900
C1736       C  0.69932176  0.87844541  0.34269556    -0.13500
C1737       C  0.69272998  0.86469240  0.36431567     0.03200
C1738       C  0.71096092  0.86100133  0.38339834    -0.25600
H1739       H  0.79547508  0.85765781  0.40267400     0.08300
H1740       H  0.75075992  0.85249694  0.41421996     0.11900
H1741       H  0.77368083  0.89279006  0.33287683     0.11800
H1742       H  0.72887321  0.89638794  0.32171709     0.11500
H1743       H  0.68560054  0.88114449  0.32767434     0.12100
H1744       H  0.70612433  0.84982069  0.39980021     0.14000
C1745       C  0.86102534  0.70299993  0.36585779    -0.06000
C1746       C  0.88244509  0.70919941  0.35157208    -0.05900
C1747       C  0.88937416  0.73449805  0.34828026    -0.24100
C1748       C  0.87511426  0.75388028  0.35948913     0.18100
C1749       C  0.85497626  0.74761765  0.37585437     0.15400
C1750       C  0.84794866  0.72221396  0.37877054    -0.19100
C1751       C  0.84096570  0.76695264  0.38740912    -0.20900
C1752       C  0.84540797  0.79217166  0.38109736    -0.13500
C1753       C  0.86371383  0.79836209  0.36300380     0.03200
C1754       C  0.87922961  0.77926551  0.35300933    -0.25600
H1755       H  0.89256027  0.69465059  0.34129957     0.08300
H1756       H  0.90501706  0.73894433  0.33586927     0.11900
H1757       H  0.83131925  0.71747204  0.38975571     0.11800
H1758       H  0.82556998  0.76249161  0.40012552     0.11500
H1759       H  0.83293444  0.80660444  0.38853188     0.12100
H1760       H  0.89308895  0.78397794  0.33869973     0.14000
C1761       C  0.54466468  0.16733070  0.37890985    -0.06000
C1762       C  0.53341352  0.14468699  0.38706281    -0.05900
C1763       C  0.50704018  0.14211006  0.38784812    -0.24100
C1764       C  0.49140107  0.16216939  0.38060814     0.18100
C1765       C  0.50261278  0.18497078  0.37238463     0.15400
C1766       C  0.52901376  0.18733455  0.37146373    -0.19100
C1767       C  0.48726430  0.20528744  0.36556244    -0.20900
C1768       C  0.46107386  0.20332642  0.36741774    -0.13500
C1769       C  0.44962530  0.18090309  0.37569846     0.03200
C1770       C  0.46482897  0.16011637  0.38188245    -0.25600
H1771       H  0.54500874  0.12896235  0.39297322     0.08300
H1772       H  0.49889506  0.12451934  0.39432618     0.11900
H1773       H  0.53735365  0.20492948  0.36519720     0.11800
H1774       H  0.49552685  0.22287160  0.35919890     0.11500
H1775       H  0.44963217  0.21950668  0.36245216     0.12100
H1776       H  0.45608103  0.14286527  0.38852241     0.14000
C1777       C  0.62275652  0.44686534  0.16850638    -0.06000
C1778       C  0.62084655  0.45718434  0.14408860    -0.05900
C1779       C  0.62104910  0.48341426  0.14059089    -0.24100
C1780       C  0.62285828  0.49985312  0.16147067     0.18100
C1781       C  0.62478983  0.48955352  0.18603626     0.15400
C1782       C  0.62495800  0.46330744  0.18935151    -0.19100
C1783       C  0.62613872  0.50563648  0.20705925    -0.20900
C1784       C  0.62524092  0.53167650  0.20393510    -0.13500
C1785       C  0.62319602  0.54238908  0.17969892     0.03200
C1786       C  0.62234694  0.52631635  0.15838299    -0.25600
H1787       H  0.61911910  0.44495922  0.12766748     0.08300
H1788       H  0.61949032  0.49082620  0.12159101     0.11900
H1789       H  0.62623246  0.45569772  0.20831014     0.11800
H1790       H  0.62761636  0.49806998  0.22601122     0.11500
H1791       H  0.62615121  0.54352225  0.22070350     0.12100
H1792       H  0.62063239  0.53430922  0.13963018     0.14000
C1793       C  0.54216340  0.37357022  0.17933850    -0.06000
C1794       C  0.53135583  0.37903339  0.20309745    -0.05900
C1795       C  0.50521604  0.37937880  0.20637847    -0.24100
C1796       C  0.48903896  0.37449372  0.18594033     0.18100
C1797       C  0.49934517  0.36928970  0.16179778     0.15400
C1798       C  0.52592061  0.36860313  0.15864817    -0.19100
C1799       C  0.48279334  0.36504647  0.14131877    -0.20900
C1800       C  0.45646769  0.36598829  0.14477274    -0.13500
C1801       C  0.44618283  0.37067110  0.16884854     0.03200
C1802       C  0.46269331  0.37484675  0.18935083    -0.25600
H1803       H  0.54317872  0.38288589  0.21946108     0.08300
H1804       H  0.49765065  0.38352651  0.22497659     0.11900
H1805       H  0.53387529  0.36451803  0.14020584     0.11800
H1806       H  0.49019171  0.36110953  0.12262120     0.11500
H1807       H  0.44411889  0.36267009  0.12868935     0.12100
H1808       H  0.45500505  0.37877677  0.20796015     0.14000
C1809       C  0.60991867  0.31118019  0.24903182    -0.06000
C1810       C  0.60069110  0.31880642  0.27276959    -0.05900
C1811       C  0.59849676  0.30127868  0.29253973    -0.24100
C1812       C  0.60531521  0.27584912  0.28876807     0.18100
C1813       C  0.61299708  0.26790792  0.26440493     0.15400
C1814       C  0.61523679  0.28552029  0.24485011    -0.19100
C1815       C  0.61946668  0.24265175  0.26015906    -0.20900
C1816       C  0.61982785  0.22560339  0.28012342    -0.13500
C1817       C  0.61386154  0.23335846  0.30492171     0.03200
C1818       C  0.60574703  0.25846479  0.30897645    -0.25600
H1819       H  0.59650157  0.33849062  0.27641129     0.08300
H1820       H  0.59232055  0.30778338  0.31098574     0.11900
H1821       H  0.62210318  0.27939871  0.22648502     0.11800
H1822       H  0.62511209  0.23622999  0.24149997     0.11500
H1823       H  0.62586368  0.20645200  0.27622898     0.12100
H1824       H  0.60099982  0.26476960  0.32792307     0.14000
C1825       C  0.65469009  0.94618179  0.12598013    -0.06000
C1826       C  0.63059593  0.95731335  0.12669581    -0.05900
C1827       C  0.62805070  0.98367703  0.12854228    -0.24100
C1828       C  0.64956125  0.99931428  0.13023920     0.18100
C1829       C  0.67377944  0.98805898  0.13023060     0.15400
C1830       C  0.67616500  0.96179223  0.12782423    -0.19100
C1831       C  0.69536481  0.00321115  0.13256560    -0.20900
C1832       C  0.69315435  0.02933923  0.13452658    -0.13500
C1833       C  0.66931711  0.04114306  0.13387369     0.03200
C1834       C  0.64744202  0.02590171  0.13181725    -0.25600
H1835       H  0.61377293  0.94566987  0.12532310     0.08300
H1836       H  0.60927598  0.99182299  0.12863338     0.11900
H1837       H  0.69487300  0.95342439  0.12765502     0.11800
H1838       H  0.71405949  0.99485420  0.13272195     0.11500
H1839       H  0.71037386  0.04039067  0.13595268     0.12100
H1840       H  0.62894242  0.03465411  0.13132716     0.14000
C1841       C  0.61828623  0.12683973  0.20646188    -0.06000
C1842       C  0.60426885  0.14786002  0.21458514    -0.05900
C1843       C  0.59786971  0.15097867  0.24000601    -0.24100
C1844       C  0.60605400  0.13345392  0.25795810     0.18100
C1845       C  0.61867474  0.11130706  0.24986893     0.15400
C1846       C  0.62426556  0.10786056  0.22396003    -0.19100
C1847       C  0.62778023  0.09439741  0.26811844    -0.20900
C1848       C  0.62675116  0.10066618  0.29393186    -0.13500
C1849       C  0.61580080  0.12344623  0.30187847     0.03200
C1850       C  0.60425776  0.13907573  0.28390450    -0.25600
H1851       H  0.59972669  0.16278459  0.20147182     0.08300
H1852       H  0.58821068  0.16805984  0.24585813     0.11900
H1853       H  0.63560583  0.09191437  0.21792926     0.11800
H1854       H  0.63752361  0.07734832  0.26236990     0.11500
H1855       H  0.63631089  0.08874663  0.30749061     0.12100
H1856       H  0.59650234  0.15707370  0.28994186     0.14000
C1857       C  0.61650848  0.19455049  0.12889701    -0.06000
C1858       C  0.60033324  0.19973852  0.14924269    -0.05900
C1859       C  0.59367699  0.22460555  0.15510695    -0.24100
C1860       C  0.60277513  0.24455433  0.14036027     0.18100
C1861       C  0.61635327  0.23921566  0.11795780     0.15400
C1862       C  0.62331898  0.21416590  0.11244950    -0.19100
C1863       C  0.62490673  0.25923813  0.10292392    -0.20900
C1864       C  0.62252039  0.28420786  0.11143383    -0.13500
C1865       C  0.61181067  0.28937617  0.13515986     0.03200
C1866       C  0.60068611  0.26962148  0.14887161    -0.25600
H1867       H  0.59515095  0.18490187  0.16221749     0.08300
H1868       H  0.58297061  0.22834165  0.17217552     0.11900
H1869       H  0.63606110  0.21025775  0.09687725     0.11800
H1870       H  0.63498540  0.25552199  0.08547870     0.11500
H1871       H  0.63122965  0.29919551  0.10064560     0.12100
H1872       H  0.59230741  0.27357167  0.16718239     0.14000
C1873       C  0.95061701  0.13194648  0.32018560    -0.06000
C1874       C  0.96357572  0.13343026  0.29702289    -0.05900
C1875       C  0.98989579  0.13379294  0.29627009    -0.24100
C1876       C  0.00399018  0.13285621  0.31868139     0.18100
C1877       C  0.99149402  0.13229171  0.34226092     0.15400
C1878       C  0.96475738  0.13168196  0.34290067    -0.19100
C1879       C  0.00608527  0.13186112  0.36459721    -0.20900
C1880       C  0.03265913  0.13095450  0.36344951    -0.13500
C1881       C  0.04499390  0.13021731  0.33994884     0.03200
C1882       C  0.03042953  0.13183199  0.31770918    -0.25600
H1883       H  0.95333583  0.13367186  0.27923866     0.08300
H1884       H  0.99924518  0.13438307  0.27805859     0.11900
H1885       H  0.95504467  0.13076401  0.36089787     0.11800
H1886       H  0.99694765  0.13171447  0.38291158     0.11500
H1887       H  0.04348134  0.12993343  0.38084322     0.12100
H1888       H  0.03971304  0.13182698  0.29943227     0.14000
C1889       C  0.87604306  0.04962223  0.31720192    -0.06000
C1890       C  0.88198210  0.03819072  0.29382673    -0.05900
C1891       C  0.87972388  0.01219584  0.29035736    -0.24100
C1892       C  0.87172167  0.99689405  0.31024517     0.18100
C1893       C  0.86612150  0.00788820  0.33403994     0.15400
C1894       C  0.86811521  0.03425695  0.33734034    -0.19100
C1895       C  0.85877871  0.99222742  0.35406387    -0.20900
C1896       C  0.85739133  0.96600531  0.35060217    -0.13500
C1897       C  0.86268831  0.95508274  0.32690630     0.03200
C1898       C  0.86956064  0.97071521  0.30673634    -0.25600
H1899       H  0.88804941  0.04941772  0.27790141     0.08300
H1900       H  0.88424866  0.00405752  0.27205486     0.11900
H1901       H  0.86349153  0.04275170  0.35545505     0.11800
H1902       H  0.85444126  0.00021245  0.37247010     0.11500
H1903       H  0.85208511  0.95423496  0.36640685     0.12100
H1904       H  0.87403937  0.96239212  0.28848715     0.14000
C1905       C  0.80935174  0.11402381  0.25275779    -0.06000
C1906       C  0.81594071  0.10495540  0.22869103    -0.05900
C1907       C  0.79755563  0.10306976  0.20962055    -0.24100
C1908       C  0.77245445  0.11025918  0.21448001     0.18100
C1909       C  0.76553175  0.11791758  0.23915617     0.15400
C1910       C  0.78395562  0.11949933  0.25812690    -0.19100
C1911       C  0.74061133  0.12528446  0.24415015    -0.20900
C1912       C  0.72295649  0.12647072  0.22454381    -0.13500
C1913       C  0.72986069  0.12006076  0.19965978     0.03200
C1914       C  0.75447369  0.11115375  0.19490607    -0.25600
H1915       H  0.83548547  0.10083256  0.22423344     0.08300
H1916       H  0.80317533  0.09706151  0.19082567     0.11900
H1917       H  0.77880307  0.12637903  0.27679818     0.11800
H1918       H  0.73501630  0.13103524  0.26304185     0.11500
H1919       H  0.70406560  0.13311700  0.22875518     0.12100
H1920       H  0.76001938  0.10612179  0.17579775     0.14000
C1921       C  0.70036624  0.12597707  0.37334602    -0.06000
C1922       C  0.70528174  0.10615802  0.35635122    -0.05900
C1923       C  0.73017426  0.09846071  0.35173330    -0.24100
C1924       C  0.75048056  0.11039182  0.36421598     0.18100
C1925       C  0.74550593  0.12863329  0.38318593     0.15400
C1926       C  0.72045162  0.13646856  0.38747862    -0.19100
C1927       C  0.76582809  0.14032052  0.39588004    -0.20900
C1928       C  0.79074598  0.13588175  0.38812465    -0.13500
C1929       C  0.79565123  0.11990682  0.36745017     0.03200
C1930       C  0.77555156  0.10619473  0.35642693    -0.25600
H1931       H  0.69010348  0.09822218  0.34496114     0.08300
H1932       H  0.73362753  0.08431995  0.33725297     0.11900
H1933       H  0.71675580  0.15206797  0.40032402     0.11800
H1934       H  0.76238005  0.15418141  0.41062844     0.11500
H1935       H  0.80589756  0.14694539  0.39653806     0.12100
H1936       H  0.77922001  0.09407681  0.34023357     0.14000
C1937       C  0.81953443  0.44861593  0.37172966    -0.06000
C1938       C  0.79575174  0.46025587  0.36976095    -0.05900
C1939       C  0.79361587  0.48632602  0.36854698    -0.24100
C1940       C  0.81522110  0.50152477  0.36957111     0.18100
C1941       C  0.83942091  0.49038357  0.37151034     0.15400
C1942       C  0.84151835  0.46376510  0.37227483    -0.19100
C1943       C  0.86081480  0.50620624  0.37298570    -0.20900
C1944       C  0.85812032  0.53263027  0.37267293    -0.13500
C1945       C  0.83399867  0.54365981  0.37067845     0.03200
C1946       C  0.81273548  0.52777546  0.36898516    -0.25600
H1947       H  0.77857174  0.44906033  0.36908864     0.08300
H1948       H  0.77495075  0.49462490  0.36706216     0.11900
H1949       H  0.85993077  0.45497512  0.37398103     0.11800
H1950       H  0.87957497  0.49817399  0.37459673     0.11500
H1951       H  0.87484788  0.54440148  0.37409220     0.12100
H1952       H  0.79394990  0.53583463  0.36757298     0.14000
C1953       C  0.69216145  0.37758092  0.23524507    -0.06000
C1954       C  0.71665433  0.37016930  0.22815870    -0.05900
C1955       C  0.73659120  0.37157483  0.24545679    -0.24100
C1956       C  0.73228392  0.38021382  0.27017134     0.18100
C1957       C  0.70819260  0.38946824  0.27700073     0.15400
C1958       C  0.68831753  0.38837847  0.25935099    -0.19100
C1959       C  0.70402554  0.39805097  0.30186373    -0.20900
C1960       C  0.72303054  0.39573518  0.32022018    -0.13500
C1961       C  0.74628489  0.38483682  0.31382232     0.03200
C1962       C  0.75117995  0.37810817  0.28859580    -0.25600
H1963       H  0.72018770  0.36215281  0.20959522     0.08300
H1964       H  0.75506359  0.36472610  0.23989178     0.11900
H1965       H  0.66954837  0.39430941  0.26499713     0.11800
H1966       H  0.68571690  0.40533262  0.30739053     0.11500
H1967       H  0.71900933  0.40086305  0.33966919     0.12100
H1968       H  0.76924244  0.36976537  0.28367638     0.14000
C1969       C  0.86264211  0.29480189  0.36877636    -0.06000
C1970       C  0.88211810  0.28811345  0.35209867    -0.05900
C1971       C  0.88996601  0.26296070  0.34998420    -0.24100
C1972       C  0.87794349  0.24405149  0.36408590     0.18100
C1973       C  0.85927011  0.25091646  0.38196770     0.15400
C1974       C  0.85196656  0.27631321  0.38439116    -0.19100
C1975       C  0.84647447  0.23202518  0.39533356    -0.20900
C1976       C  0.85041859  0.20660202  0.38936956    -0.13500
C1977       C  0.86777091  0.19962817  0.37058018     0.03200
C1978       C  0.88240962  0.21835231  0.35884364    -0.25600
H1979       H  0.89005051  0.30207200  0.33948576     0.08300
H1980       H  0.90420452  0.25808292  0.33610474     0.11900
H1981       H  0.83637449  0.28134989  0.39670222     0.11800
H1982       H  0.83205790  0.23692568  0.40901998     0.11500
H1983       H  0.83852110  0.19242793  0.39806195     0.12100
H1984       H  0.89514133  0.21306285  0.34367012     0.14000
C1985       C  0.74659543  0.30950790  0.38764965    -0.06000
C1986       C  0.72267503  0.31866329  0.39480738    -0.05900
C1987       C  0.70221700  0.30220164  0.39746501    -0.24100
C1988       C  0.70533532  0.27635950  0.39284798     0.18100
C1989       C  0.72972727  0.26684172  0.38726579     0.15400
C1990       C  0.75023162  0.28343123  0.38503201    -0.19100
C1991       C  0.73289616  0.24111122  0.38216357    -0.20900
C1992       C  0.71184106  0.22537077  0.38045066    -0.13500
C1993       C  0.68745687  0.23499793  0.38443939     0.03200
C1994       C  0.68428949  0.26017814  0.39188391    -0.25600
H1995       H  0.71941308  0.33872364  0.39704741     0.08300
H1996       H  0.68373668  0.30983516  0.40186843     0.11900
H1997       H  0.76863255  0.27617787  0.37967696     0.11800
H1998       H  0.75144020  0.23346622  0.37804938     0.11500
H1999       H  0.71444941  0.20583172  0.37485699     0.12100
H2000       H  0.66539602  0.26758253  0.39472856     0.14000
C2001       C  0.94093524  0.31342158  0.12039166    -0.06000
C2002       C  0.95121417  0.28917776  0.12359336    -0.05900
C2003       C  0.97723478  0.28568248  0.12627663    -0.24100
C2004       C  0.99379797  0.30631897  0.12541995     0.18100
C2005       C  0.98394823  0.33090855  0.12244751     0.15400
C2006       C  0.95746038  0.33439726  0.12030387    -0.19100
C2007       C  0.00088135  0.35138039  0.12121229    -0.20900
C2008       C  0.02716278  0.34744721  0.12238467    -0.13500
C2009       C  0.03711234  0.32298464  0.12509784     0.03200
C2010       C  0.02008915  0.30257492  0.12696548    -0.25600
H2011       H  0.93899947  0.27273801  0.12415700     0.08300
H2012       H  0.98443886  0.26670922  0.12865452     0.11900
H2013       H  0.94982226  0.35319352  0.11788766     0.11800
H2014       H  0.99382330  0.37041107  0.11892649     0.11500
H2015       H  0.03971286  0.36355050  0.12090515     0.12100
H2016       H  0.02728996  0.28355300  0.12901536     0.14000
C2017       C  0.73331563  0.18192655  0.11332868    -0.06000
C2018       C  0.75568286  0.17412029  0.10139006    -0.05900
C2019       C  0.77511135  0.19151497  0.09679343    -0.24100
C2020       C  0.77228365  0.21693182  0.10392918     0.18100
C2021       C  0.74898163  0.22512655  0.11411778     0.15400
C2022       C  0.72972158  0.20760975  0.11874806    -0.19100
C2023       C  0.74577968  0.25046613  0.12090018    -0.20900
C2024       C  0.76609503  0.26717326  0.11959212    -0.13500
C2025       C  0.79006681  0.25883131  0.11163086     0.03200
C2026       C  0.79272903  0.23392803  0.10259752    -0.25600
H2027       H  0.75871886  0.15436807  0.09698733     0.08300
H2028       H  0.79270726  0.18489803  0.08869091     0.11900
H2029       H  0.71231405  0.21377974  0.12764609     0.11800
H2030       H  0.72790211  0.25711168  0.12835909     0.11500
H2031       H  0.76333248  0.28634381  0.12626737     0.12100
H2032       H  0.81103286  0.22731101  0.09622284     0.14000
C2033       C  0.87198555  0.19769303  0.26054451    -0.06000
C2034       C  0.86070455  0.22097236  0.26646970    -0.05900
C2035       C  0.85899884  0.23982601  0.24833692    -0.24100
C2036       C  0.86855128  0.23570460  0.22400337     0.18100
C2037       C  0.88159454  0.21314255  0.21830984     0.15400
C2038       C  0.88340551  0.19429454  0.23673626    -0.19100
C2039       C  0.89135588  0.20935222  0.19388269    -0.20900
C2040       C  0.88691273  0.22714024  0.17491550    -0.13500
C2041       C  0.87252682  0.24873444  0.18020757     0.03200
C2042       C  0.86416577  0.25329498  0.20496974    -0.25600
H2043       H  0.85198216  0.22417472  0.28472243     0.08300
H2044       H  0.84923354  0.25719491  0.25301744     0.11900
H2045       H  0.89235582  0.17649435  0.23202255     0.11800
H2046       H  0.90163112  0.19227839  0.18924320     0.11500
H2047       H  0.89370338  0.22350580  0.15592955     0.12100
H2048       H  0.85349872  0.27025565  0.20924948     0.14000
C2049       C  0.87132349  0.35674810  0.19842794    -0.06000
C2050       C  0.89020161  0.34541693  0.21324268    -0.05900
C2051       C  0.89060116  0.34869941  0.23956447    -0.24100
C2052       C  0.87154188  0.36266601  0.25159406     0.18100
C2053       C  0.85334756  0.37534119  0.23660962     0.15400
C2054       C  0.85370420  0.37272105  0.21010117    -0.19100
C2055       C  0.83360098  0.38837138  0.24844085    -0.20900
C2056       C  0.83071476  0.38720552  0.27463809    -0.13500
C2057       C  0.84779012  0.37352188  0.28962597     0.03200
C2058       C  0.86889173  0.36219996  0.27817012    -0.25600
H2059       H  0.90347050  0.33243204  0.20461381     0.08300
H2060       H  0.90465423  0.33874951  0.25061585     0.11900
H2061       H  0.83852057  0.38068731  0.19885786     0.11800
H2062       H  0.81941838  0.39806881  0.23731777     0.11500
H2063       H  0.81414583  0.39572613  0.28313579     0.12100
H2064       H  0.88170538  0.35102314  0.28955574     0.14000
C2065       C  0.78911473  0.36520628  0.12187928    -0.06000
C2066       C  0.78161071  0.38571792  0.13701658    -0.05900
C2067       C  0.75591174  0.39155461  0.14002380    -0.24100
C2068       C  0.73715527  0.37639649  0.12862962     0.18100
C2069       C  0.74455267  0.35641295  0.11239427     0.15400
C2070       C  0.77047207  0.35122368  0.10881445    -0.19100
C2071       C  0.72594785  0.34049323  0.10191071    -0.20900
C2072       C  0.70056457  0.34307809  0.10896770    -0.13500
C2073       C  0.69309649  0.36207939  0.12599220     0.03200
C2074       C  0.71137191  0.37936372  0.13500224    -0.25600
H2075       H  0.79558535  0.39617004  0.14790301     0.08300
H2076       H  0.75069108  0.40683875  0.15266706     0.11900
H2077       H  0.77604791  0.33472216  0.09795418     0.11800
H2078       H  0.73123215  0.32497644  0.08957887     0.11500
H2079       H  0.68691886  0.32921298  0.10234416     0.12100
H2080       H  0.70591793  0.39349966  0.14886003     0.14000
C2081       C  0.62255343  0.83105863  0.54679911    -0.06000
C2082       C  0.61604925  0.85393074  0.53520319    -0.05900
C2083       C  0.61674082  0.85606667  0.50871802    -0.24100
C2084       C  0.62423725  0.83544410  0.49362721     0.18100
C2085       C  0.63224930  0.81302574  0.50558588     0.15400
C2086       C  0.63131739  0.81101091  0.53187730    -0.19100
C2087       C  0.64028716  0.79248618  0.49111451    -0.20900
C2088       C  0.63920405  0.79348052  0.46491934    -0.13500
C2089       C  0.62988963  0.81499066  0.45244717     0.03200
C2090       C  0.62309730  0.83633827  0.46694087    -0.25600
H2091       H  0.60945252  0.86969801  0.54650191     0.08300
H2092       H  0.61080404  0.87355653  0.50003987     0.11900
H2093       H  0.63689995  0.79347521  0.54078747     0.11800
H2094       H  0.64677991  0.77531494  0.50006819     0.11500
H2095       H  0.64500388  0.77685524  0.45443565     0.12100
H2096       H  0.61610366  0.85309988  0.45761543     0.14000
C2097       C  0.60382313  0.68851885  0.75519432    -0.06000
C2098       C  0.60598943  0.71303876  0.76517543    -0.05900
C2099       C  0.60526579  0.73387914  0.74926120    -0.24100
C2100       C  0.60306276  0.73035218  0.72307223     0.18100
C2101       C  0.59909800  0.70577675  0.71307923     0.15400
C2102       C  0.59904008  0.68495325  0.72935016    -0.19100
C2103       C  0.59737711  0.70227351  0.68684572    -0.20900
C2104       C  0.60127286  0.72258925  0.67062870    -0.13500
C2105       C  0.60687767  0.74673569  0.68040076     0.03200
C2106       C  0.60670059  0.75068544  0.70667232    -0.25600
H2107       H  0.61000563  0.71591719  0.78511458     0.08300
H2108       H  0.60818594  0.75256608  0.75725200     0.11900
H2109       H  0.59795914  0.66594728  0.72163984     0.11800
H2110       H  0.59425441  0.68362669  0.67884285     0.11500
H2111       H  0.60116952  0.71910149  0.65041457     0.12100
H2112       H  0.61077953  0.76929242  0.71438145     0.14000
C2113       C  0.81867185  0.62280999  0.54214719    -0.06000
C2114       C  0.79580520  0.61628317  0.53007646    -0.05900
C2115       C  0.79421675  0.61464061  0.50381305    -0.24100
C2116       C  0.81538664  0.61985424  0.48890514     0.18100
C2117       C  0.83850727  0.62682358  0.50054945     0.15400
C2118       C  0.84013611  0.62795994  0.52724603    -0.19100
C2119       C  0.85939934  0.63256945  0.48518143    -0.20900
C2120       C  0.85741520  0.63111753  0.45866911    -0.13500
C2121       C  0.83458741  0.62361840  0.44707734     0.03200
C2122       C  0.81364852  0.61817676  0.46249096    -0.25600
H2123       H  0.77906448  0.61207674  0.54105631     0.08300
H2124       H  0.77634496  0.60932336  0.49514756     0.11900
H2125       H  0.85781028  0.63320384  0.53634822     0.11800
H2126       H  0.87726753  0.63815567  0.49365448     0.11500
H2127       H  0.87379336  0.63554968  0.44726599     0.12100
H2128       H  0.79576423  0.61270479  0.45392316     0.14000
C2129       C  0.76253788  0.69824116  0.61235265    -0.06000
C2130       C  0.76962658  0.72302425  0.61901481    -0.05900
C2131       C  0.75199835  0.74255622  0.61828241    -0.24100
C2132       C  0.72699552  0.73765733  0.61084366     0.18100
C2133       C  0.72011397  0.71325910  0.60222681     0.15400
C2134       C  0.73799605  0.69372065  0.60288948    -0.19100
C2135       C  0.69506753  0.70852744  0.59455362    -0.20900
C2136       C  0.67668314  0.72735012  0.59693148    -0.13500
C2137       C  0.68313766  0.75100021  0.60714776     0.03200
C2138       C  0.70844104  0.75632883  0.61330286    -0.25600
H2139       H  0.78847286  0.72711849  0.62605587     0.08300
H2140       H  0.75764338  0.76125786  0.62460535     0.11900
H2141       H  0.73233127  0.67474290  0.59747952     0.11800
H2142       H  0.68947421  0.68997261  0.58777545     0.11500
H2143       H  0.65717149  0.72294661  0.59234852     0.12100
H2144       H  0.71339551  0.77465642  0.62120962     0.14000
C2145       C  0.75794659  0.62190240  0.68730199    -0.06000
C2146       C  0.76675667  0.62852259  0.71154033    -0.05900
C2147       C  0.75080493  0.62712881  0.73234798    -0.24100
C2148       C  0.72559239  0.61969005  0.72908612     0.18100
C2149       C  0.71680171  0.61191317  0.70492033     0.15400
C2150       C  0.73328439  0.61258397  0.68413344    -0.19100
C2151       C  0.69133039  0.60509766  0.70177266    -0.20900
C2152       C  0.67446004  0.60742728  0.72198111    -0.13500
C2153       C  0.68290174  0.61631496  0.74569468     0.03200
C2154       C  0.70872648  0.62141621  0.74931721    -0.25600
H2155       H  0.78584959  0.63558945  0.71420850     0.08300
H2156       H  0.75784611  0.63303326  0.75075604     0.11900
H2157       H  0.72645404  0.60770913  0.66534607     0.11800
H2158       H  0.68424058  0.59901872  0.68344692     0.11500
H2159       H  0.65464292  0.60324214  0.71876178     0.12100
H2160       H  0.71553350  0.62810265  0.76756497     0.14000
C2161       C  0.67344208  0.87022351  0.95051612    -0.06000
C2162       C  0.69714953  0.86737110  0.96227657    -0.05900
C2163       C  0.69920339  0.86534381  0.98840928    -0.24100
C2164       C  0.67759149  0.86648452  0.00351370     0.18100
C2165       C  0.65345392  0.86876052  0.99213462     0.15400
C2166       C  0.65144080  0.87025997  0.96549547    -0.19100
C2167       C  0.63201431  0.87021747  0.00774453    -0.20900
C2168       C  0.63461450  0.87017187  0.03422300    -0.13500
C2169       C  0.65867901  0.86844749  0.04554707     0.03200
C2170       C  0.67998609  0.86609080  0.02989190    -0.25600
H2171       H  0.71432476  0.86691621  0.95114961     0.08300
H2172       H  0.71781716  0.86347094  0.99685011     0.11900
H2173       H  0.63308424  0.87248824  0.95659874     0.11800
H2174       H  0.61330638  0.87191314  0.99950308     0.11500
H2175       H  0.61784999  0.87186605  0.04581687     0.12100
H2176       H  0.69870057  0.86462053  0.03821809     0.14000
C2177       C  0.62907552  0.87364754  0.79697785    -0.06000
C2178       C  0.60808481  0.85794481  0.79247098    -0.05900
C2179       C  0.59997982  0.85277111  0.76768460    -0.24100
C2180       C  0.61311042  0.86287046  0.74701395     0.18100
C2181       C  0.63307300  0.88021988  0.75153759     0.15400
C2182       C  0.64074325  0.88566417  0.77649744    -0.19100
C2183       C  0.64669180  0.88989747  0.73105141    -0.20900
C2184       C  0.64208806  0.88086350  0.70657366    -0.13500
C2185       C  0.62346712  0.86245000  0.70203734     0.03200
C2186       C  0.60827420  0.85420333  0.72214896    -0.25600
H2187       H  0.59933891  0.84797108  0.80800697     0.08300
H2188       H  0.58465036  0.83946010  0.76467088     0.11900
H2189       H  0.65743922  0.89716714  0.77987555     0.11800
H2190       H  0.66203420  0.90318022  0.73414508     0.11500
H2191       H  0.65424091  0.88703310  0.69132731     0.12100
H2192       H  0.59434843  0.83948273  0.71880253     0.14000
C2193       C  0.63639015  0.79491537  0.86855513    -0.06000
C2194       C  0.61387216  0.78971303  0.85537525    -0.05900
C2195       C  0.60560243  0.76474533  0.85210062    -0.24100
C2196       C  0.61963919  0.74467749  0.86219374     0.18100
C2197       C  0.64100952  0.74995730  0.87749980     0.15400
C2198       C  0.64933122  0.77505395  0.88044643    -0.19100
C2199       C  0.65485842  0.72991007  0.88785739    -0.20900
C2200       C  0.64906516  0.70491852  0.88117124    -0.13500
C2201       C  0.62947247  0.69964804  0.86394764     0.03200
C2202       C  0.61405126  0.71952424  0.85546568    -0.25600
H2203       H  0.60379950  0.80474593  0.84591647     0.08300
H2204       H  0.58904411  0.76105411  0.84049431     0.11900
H2205       H  0.66675258  0.77901791  0.89063336     0.11800
H2206       H  0.67119051  0.73361949  0.89977734     0.11500
H2207       H  0.66148168  0.68995642  0.88744041     0.12100
H2208       H  0.59915766  0.71557829  0.84182022     0.14000
C2209       C  0.87607624  0.67271762  0.94858965    -0.06000
C2210       C  0.87470138  0.64807954  0.95835836    -0.05900
C2211       C  0.87304174  0.64405013  0.98459477    -0.24100
C2212       C  0.87287812  0.66457618  0.00161949     0.18100
C2213       C  0.87418052  0.68932004  0.99184002     0.15400
C2214       C  0.87561841  0.69319303  0.96564101    -0.19100
C2215       C  0.87427508  0.70999567  0.00838935    -0.20900
C2216       C  0.87345075  0.70636670  0.03443102    -0.13500
C2217       C  0.87230949  0.68196984  0.04478070     0.03200
C2218       C  0.87171977  0.66098775  0.02814943    -0.25600
H2219       H  0.87495116  0.63190847  0.94572291     0.08300
H2220       H  0.87207028  0.62488893  0.99156015     0.11900
H2221       H  0.87667460  0.71232639  0.95856487     0.11800
H2222       H  0.87519098  0.72908258  0.00119305     0.11500
H2223       H  0.87363523  0.72292323  0.04656665     0.12100
H2224       H  0.87085173  0.64207267  0.03577898     0.14000
C2225       C  0.88012318  0.65257020  0.78784922    -0.06000
C2226       C  0.89394463  0.66882946  0.77211374    -0.05900
C2227       C  0.89582724  0.66415784  0.74615850    -0.24100
C2228       C  0.88338548  0.64338846  0.73524603     0.18100
C2229       C  0.87070681  0.62598034  0.75104262     0.15400
C2230       C  0.86954913  0.63043094  0.77741843    -0.19100
C2231       C  0.85742512  0.60578918  0.73988791    -0.20900
C2232       C  0.85459306  0.60439134  0.71353935    -0.13500
C2233       C  0.86563017  0.62263798  0.69782793     0.03200
C2234       C  0.88123575  0.64124309  0.70874413    -0.25600
H2235       H  0.90226420  0.68596991  0.77979328     0.08300
H2236       H  0.90564702  0.67769282  0.73442411     0.11900
H2237       H  0.85849084  0.61804245  0.78933508     0.11800
H2238       H  0.84751584  0.59226978  0.75155648     0.11500
H2239       H  0.84185265  0.59037847  0.70554489     0.12100
H2240       H  0.88899793  0.65592728  0.69682799     0.14000
C2241       C  0.79736507  0.64665443  0.86767394    -0.06000
C2242       C  0.78303077  0.65911315  0.88618757    -0.05900
C2243       C  0.75687924  0.65534364  0.88760165    -0.24100
C2244       C  0.74465905  0.63897603  0.87049844     0.18100
C2245       C  0.75920023  0.62510343  0.85280525     0.15400
C2246       C  0.78550416  0.62920588  0.85136029    -0.19100
C2247       C  0.74691957  0.60870596  0.83574873    -0.20900
C2248       C  0.72046178  0.60741749  0.83503701    -0.13500
C2249       C  0.70588639  0.62245250  0.85133277     0.03200
C2250       C  0.71807905  0.63766458  0.86953327    -0.25600
H2251       H  0.79187006  0.67299975  0.89853084     0.08300
H2252       H  0.74607564  0.66610429  0.90129539     0.11900
H2253       H  0.79649471  0.61994294  0.83673198     0.11800
H2254       H  0.75770086  0.59791674  0.82206171     0.11500
H2255       H  0.71134548  0.59621404  0.82037546     0.12100
H2256       H  0.70686507  0.64983563  0.88164721     0.14000
C2257       C  0.81883782  0.75459338  0.88804870    -0.06000
C2258       C  0.82794504  0.77880457  0.89442256    -0.05900
C2259       C  0.81129057  0.79915770  0.89712966    -0.24100
C2260       C  0.78521156  0.79569238  0.89346562     0.18100
C2261       C  0.77575918  0.77108007  0.88867698     0.15400
C2262       C  0.79256583  0.75072300  0.88622829    -0.19100
C2263       C  0.74979758  0.76748074  0.88464869    -0.20900
C2264       C  0.73367279  0.78822137  0.88331174    -0.13500
C2265       C  0.74304234  0.81285990  0.88659474     0.03200
C2266       C  0.76865731  0.81651061  0.89275101    -0.25600
H2267       H  0.84808388  0.78233181  0.89592880     0.08300
H2268       H  0.81893206  0.81780918  0.90091826     0.11900
H2269       H  0.78526267  0.73213198  0.88145854     0.11800
H2270       H  0.74218588  0.74876983  0.88107918     0.11500
H2271       H  0.71398815  0.78514395  0.87836496     0.12100
H2272       H  0.77601984  0.83553739  0.89482979     0.14000
C2273       C  0.86604893  0.70174978  0.61510419    -0.06000
C2274       C  0.85163534  0.71425711  0.59671791    -0.05900
C2275       C  0.85142015  0.74067487  0.59575229    -0.24100
C2276       C  0.86584397  0.75497573  0.61303087     0.18100
C2277       C  0.88223452  0.74244566  0.63001097     0.15400
C2278       C  0.88209605  0.71591500  0.63103944    -0.19100
C2279       C  0.89688844  0.75666670  0.64711935    -0.20900
C2280       C  0.89405657  0.78286895  0.64861690    -0.13500
C2281       C  0.87641849  0.79526838  0.63322465     0.03200
C2282       C  0.86278126  0.78134548  0.61497528    -0.25600
H2283       H  0.83861735  0.70370348  0.58477806     0.08300
H2284       H  0.83882851  0.74989944  0.58251968     0.11900
H2285       H  0.89281158  0.70636690  0.64564720     0.11800
H2286       H  0.90957690  0.74741027  0.66024149     0.11500
H2287       H  0.90425252  0.79325069  0.66317394     0.12100
H2288       H  0.84876441  0.79080269  0.60342362     0.14000
C2289       C  0.88501990  0.80765469  0.73600654    -0.06000
C2290       C  0.87968872  0.78247204  0.72912755    -0.05900
C2291       C  0.88255453  0.76303747  0.74645644    -0.24100
C2292       C  0.89085378  0.76831716  0.77106681     0.18100
C2293       C  0.89829118  0.79311567  0.77783510     0.15400
C2294       C  0.89548482  0.81273412  0.76011651    -0.19100
C2295       C  0.90667869  0.79797887  0.80271873    -0.20900
C2296       C  0.90542695  0.77901100  0.82114544    -0.13500
C2297       C  0.89595793  0.75503797  0.81474488     0.03200
C2298       C  0.88996643  0.74950813  0.78945517    -0.25600
H2299       H  0.87208614  0.77782719  0.71060655     0.08300
H2300       H  0.87709986  0.74403421  0.74094913     0.11900
H2301       H  0.89991799  0.83199485  0.76560323     0.11800
H2302       H  0.91274189  0.81677058  0.80826855     0.11500
H2303       H  0.90998514  0.78358824  0.84063961     0.12100
H2304       H  0.88265019  0.73095397  0.78450755     0.14000
C2305       C  0.79268990  0.86871133  0.62921998    -0.06000
C2306       C  0.78720462  0.85006973  0.61103067    -0.05900
C2307       C  0.76208444  0.84439408  0.60460684    -0.24100
C2308       C  0.74208983  0.85747093  0.61618387     0.18100
C2309       C  0.74750340  0.87789273  0.63267906     0.15400
C2310       C  0.77280862  0.88328237  0.63923402    -0.19100
C2311       C  0.72745055  0.89114801  0.64399227    -0.20900
C2312       C  0.70242071  0.88284098  0.64078776    -0.13500
C2313       C  0.69713945  0.86108589  0.62644023     0.03200
C2314       C  0.71694751  0.84914375  0.61324695    -0.25600
H2315       H  0.80220456  0.83828624  0.60356706     0.08300
H2316       H  0.75827750  0.82878568  0.59182297     0.11900
H2317       H  0.77692773  0.89738692  0.65361256     0.11800
H2318       H  0.73123077  0.90698233  0.65649582     0.11500
H2319       H  0.68748566  0.89210384  0.65130315     0.12100
H2320       H  0.71298443  0.83225029  0.60224512     0.14000
C2321       C  0.80779730  0.88602105  0.73769536    -0.06000
C2322       C  0.78345493  0.88157319  0.72786769    -0.05900
C2323       C  0.76225977  0.88258518  0.74343759    -0.24100
C2324       C  0.76507642  0.88763818  0.76931200     0.18100
C2325       C  0.78932258  0.89362132  0.77920364     0.15400
C2326       C  0.81063408  0.89308326  0.76320481    -0.19100
C2327       C  0.79197323  0.89843488  0.80519426    -0.20900
C2328       C  0.77120235  0.89584870  0.82134009    -0.13500
C2329       C  0.74735918  0.88843217  0.81183927     0.03200
C2330       C  0.74428337  0.88525526  0.78561185    -0.25600
H2331       H  0.78098999  0.87602477  0.70822277     0.08300
H2332       H  0.74386076  0.87812291  0.73548792     0.11900
H2333       H  0.82941776  0.89612252  0.77093770     0.11800
H2334       H  0.81028761  0.90317163  0.81318153     0.11500
H2335       H  0.77413719  0.89851422  0.84148068     0.12100
H2336       H  0.72603049  0.87966307  0.77800453     0.14000
C2337       C  0.16380403  0.62711206  0.54932602    -0.06000
C2338       C  0.13961804  0.62604889  0.53819727    -0.05900
C2339       C  0.13681592  0.62534855  0.51174387    -0.24100
C2340       C  0.15814692  0.62594351  0.49592277     0.18100
C2341       C  0.18245252  0.62771099  0.50703413     0.15400
C2342       C  0.18510413  0.62821585  0.53347571    -0.19100
C2343       C  0.20385215  0.62862517  0.49156151    -0.20900
C2344       C  0.20135347  0.62740826  0.46530852    -0.13500
C2345       C  0.17739044  0.62517744  0.45374810     0.03200
C2346       C  0.15572836  0.62462456  0.46928874    -0.25600
H2347       H  0.12291081  0.62508713  0.54995356     0.08300
H2348       H  0.11798317  0.62407922  0.50367544     0.11900
H2349       H  0.20388680  0.62926501  0.54174760     0.11800
H2350       H  0.22261707  0.63011652  0.49977868     0.11500
H2351       H  0.21840296  0.62805829  0.45402362     0.12100
H2352       H  0.13712002  0.62307146  0.46073909     0.14000
C2353       C  0.54038495  0.81586580  0.62065575    -0.06000
C2354       C  0.52782153  0.79260755  0.61680463    -0.05900
C2355       C  0.50143227  0.79103132  0.61653522    -0.24100
C2356       C  0.48672032  0.81264828  0.62026561     0.18100
C2357       C  0.49886491  0.83618205  0.62423882     0.15400
C2358       C  0.52562010  0.83771123  0.62427738    -0.19100
C2359       C  0.48396514  0.85772149  0.62820878    -0.20900
C2360       C  0.45747462  0.85596776  0.62834097    -0.13500
C2361       C  0.44515415  0.83267431  0.62431155     0.03200
C2362       C  0.46007657  0.81104861  0.62018634    -0.25600
H2363       H  0.53843743  0.77539456  0.61383507     0.08300
H2364       H  0.49252681  0.77280880  0.61346436     0.11900
H2365       H  0.53487181  0.85576767  0.62728695     0.11800
H2366       H  0.49279821  0.87596248  0.63130715     0.11500
H2367       H  0.44659452  0.87297602  0.63149884     0.12100
H2368       H  0.45099094  0.79290574  0.61711874     0.14000
C2369       C  0.36523952  0.83136601  0.54924995    -0.06000
C2370       C  0.36458098  0.85520874  0.53763712    -0.05900
C2371       C  0.36490864  0.85741823  0.51119768    -0.24100
C2372       C  0.36626714  0.83583821  0.49571150     0.18100
C2373       C  0.36687032  0.81178800  0.50717947     0.15400
C2374       C  0.36604506  0.80969073  0.53372705    -0.19100
C2375       C  0.36879078  0.79017624  0.49192818    -0.20900
C2376       C  0.37053059  0.79229511  0.46566836    -0.13500
C2377       C  0.36998497  0.81602716  0.45385872     0.03200
C2378       C  0.36746549  0.83783011  0.46905511    -0.25600
H2379       H  0.36392872  0.87225372  0.54903816     0.08300
H2380       H  0.36447513  0.87604726  0.50288327     0.11900
H2381       H  0.36674702  0.79117356  0.54230006     0.11800
H2382       H  0.36926210  0.77158318  0.50033107     0.11500
H2383       H  0.37214484  0.77516641  0.45448541     0.12100
H2384       H  0.36708298  0.85623765  0.46024186     0.14000
C2385       C  0.29676019  0.76686245  0.62329026    -0.06000
C2386       C  0.27241910  0.77250125  0.63242782    -0.05900
C2387       C  0.25337028  0.75419416  0.63234957    -0.24100
C2388       C  0.25817046  0.72986099  0.62306235     0.18100
C2389       C  0.28205433  0.72419866  0.61256135     0.15400
C2390       C  0.30120567  0.74276741  0.61271117    -0.19100
C2391       C  0.28658141  0.69975293  0.60308275    -0.20900
C2392       C  0.26804233  0.68084514  0.60501505    -0.13500
C2393       C  0.24483369  0.68611940  0.61665298     0.03200
C2394       C  0.23983247  0.71081889  0.62507924    -0.25600
H2395       H  0.26833409  0.79081387  0.64062315     0.08300
H2396       H  0.23505272  0.75887174  0.64030004     0.11900
H2397       H  0.31985211  0.73809491  0.60557231     0.11800
H2398       H  0.30476740  0.69504458  0.59487857     0.11500
H2399       H  0.27229870  0.66186830  0.59867693     0.12100
H2400       H  0.22185138  0.71497568  0.63407596     0.14000
C2401       C  0.45184926  0.62662490  0.81445968    -0.06000
C2402       C  0.46371139  0.63011822  0.79090931    -0.05900
C2403       C  0.48999178  0.63045817  0.78887765    -0.24100
C2404       C  0.50519633  0.62740418  0.81035051     0.18100
C2405       C  0.49383384  0.62469728  0.83434349     0.15400
C2406       C  0.46714662  0.62425932  0.83628290    -0.19100
C2407       C  0.50946871  0.62214610  0.85578692    -0.20900
C2408       C  0.53595586  0.62161019  0.85332998    -0.13500
C2409       C  0.54723539  0.62329511  0.82935820     0.03200
C2410       C  0.53160973  0.62660795  0.80803463    -0.25600
H2411       H  0.45264350  0.63222249  0.77377524     0.08300
H2412       H  0.49843769  0.63278856  0.77037120     0.11900
H2413       H  0.45836747  0.62179686  0.85460718     0.11800
H2414       H  0.50121172  0.62025003  0.87441539     0.11500
H2415       H  0.54756930  0.61919622  0.87004937     0.12100
H2416       H  0.54004810  0.62841681  0.78944665     0.14000
C2417       C  0.24131365  0.60730728  0.68859966    -0.06000
C2418       C  0.26360788  0.59549391  0.68027259    -0.05900
C2419       C  0.28409008  0.59248143  0.69677862    -0.24100
C2420       C  0.28268318  0.60165792  0.72167232     0.18100
C2421       C  0.25957863  0.61174492  0.73062455     0.15400
C2422       C  0.23890534  0.61387717  0.71423817    -0.19100
C2423       C  0.25811373  0.62160058  0.75518080    -0.20900
C2424       C  0.27986224  0.62353024  0.76994469    -0.13500
C2425       C  0.30322618  0.61503535  0.76066311     0.03200
C2426       C  0.30438966  0.60285864  0.73707103    -0.25600
H2427       H  0.26578359  0.58994134  0.66064453     0.08300
H2428       H  0.30151683  0.58446808  0.68962627     0.11900
H2429       H  0.22170829  0.62275098  0.72098496     0.11800
H2430       H  0.24052993  0.62926251  0.76236686     0.11500
H2431       H  0.27869496  0.63275667  0.78827164     0.12100
H2432       H  0.32247436  0.59649407  0.72985077     0.14000
C2433       C  0.38107284  0.69041853  0.75208851    -0.06000
C2434       C  0.38966374  0.68206010  0.72826678    -0.05900
C2435       C  0.39227283  0.69887801  0.70818560    -0.24100
C2436       C  0.38620995  0.72438836  0.71145765     0.18100
C2437       C  0.37898766  0.73325361  0.73573422     0.15400
C2438       C  0.37674366  0.71629680  0.75592965    -0.19100
C2439       C  0.37260217  0.75866098  0.73905156    -0.20900
C2440       C  0.37148647  0.77462934  0.71823514    -0.13500
C2441       C  0.37719719  0.76566298  0.69381151     0.03200
C2442       C  0.38565463  0.74080733  0.69061711    -0.25600
H2443       H  0.39341935  0.66225933  0.72480116     0.08300
H2444       H  0.39800419  0.69171461  0.68982935     0.11900
H2445       H  0.37028272  0.72304890  0.77421267     0.11800
H2446       H  0.36719780  0.76586974  0.75749633     0.11500
H2447       H  0.36499149  0.79383253  0.72101202     0.12100
H2448       H  0.38975457  0.73375451  0.67176603     0.14000
C2449       C  0.04537297  0.87575315  0.68331212    -0.06000
C2450       C  0.03357888  0.87167594  0.70673626    -0.05900
C2451       C  0.00735878  0.86976373  0.70852841    -0.24100
C2452       C  0.99219817  0.87231819  0.68696066     0.18100
C2453       C  0.00365534  0.87605552  0.66311353     0.15400
C2454       C  0.03031989  0.87737912  0.66133094    -0.19100
C2455       C  0.98813443  0.87897227  0.64170810    -0.20900
C2456       C  0.96167997  0.87866324  0.64403125    -0.13500
C2457       C  0.95018012  0.87523426  0.66776980     0.03200
C2458       C  0.96573143  0.87172830  0.68908329    -0.25600
H2459       H  0.04476272  0.87002999  0.72386483     0.08300
H2460       H  0.99890993  0.86677512  0.72692455     0.11900
H2461       H  0.03922629  0.88058130  0.64318554     0.11800
H2462       H  0.99643457  0.88186868  0.62323408     0.11500
H2463       H  0.95021662  0.88132807  0.62724492     0.12100
H2464       H  0.95725912  0.86902538  0.70752543     0.14000
C2465       C  0.12129380  0.79819783  0.64885588    -0.06000
C2466       C  0.10522984  0.78335546  0.66384992    -0.05900
C2467       C  0.10408322  0.75713673  0.66068615    -0.24100
C2468       C  0.11953969  0.74509160  0.64283792     0.18100
C2469       C  0.13467380  0.75995102  0.62657248     0.15400
C2470       C  0.13519119  0.78649648  0.62944294    -0.19100
C2471       C  0.15081541  0.74786550  0.60935310    -0.20900
C2472       C  0.15361061  0.72160876  0.60982459    -0.13500
C2473       C  0.13984086  0.70680878  0.62695891     0.03200
C2474       C  0.12191238  0.71854345  0.64263795    -0.25600
H2475       H  0.09481114  0.79195645  0.67928095     0.08300
H2476       H  0.09242076  0.74617747  0.67337205     0.11900
H2477       H  0.14821958  0.79768474  0.61835282     0.11800
H2478       H  0.16259005  0.75880843  0.59675561     0.11500
H2479       H  0.16788809  0.71294512  0.59795706     0.12100
H2480       H  0.11181208  0.70735008  0.65642796     0.14000
C2481       C  0.29391361  0.88149256  0.63288144    -0.06000
C2482       C  0.28768807  0.89803849  0.65274259    -0.05900
C2483       C  0.26247913  0.90403180  0.65772632    -0.24100
C2484       C  0.24305507  0.89305191  0.64324010     0.18100
C2485       C  0.24920075  0.87815526  0.62180211     0.15400
C2486       C  0.27474750  0.87284035  0.61646744    -0.19100
C2487       C  0.22966428  0.86659212  0.60780657    -0.20900
C2488       C  0.20462498  0.86778907  0.61635148    -0.13500
C2489       C  0.19874883  0.88102717  0.63861991     0.03200
C2490       C  0.21782566  0.89454883  0.65135926    -0.25600
H2491       H  0.30219472  0.90444239  0.66585110     0.08300
H2492       H  0.25811800  0.91553358  0.67416991     0.11900
H2493       H  0.27942202  0.85948393  0.60157329     0.11800
H2494       H  0.23395938  0.85511533  0.59133500     0.11500
H2495       H  0.19016474  0.85686588  0.60663850     0.12100
H2496       H  0.21336482  0.90425644  0.66892283     0.14000
C2497       C  0.11910823  0.68379848  0.95391285    -0.06000
C2498       C  0.11418810  0.70721788  0.96568059    -0.05900
C2499       C  0.11209635  0.70927367  0.99189446    -0.24100
C2500       C  0.11473766  0.68794211  0.00709386     0.18100
C2501       C  0.11929490  0.66416070  0.99568772     0.15400
C2502       C  0.12159271  0.66221856  0.96913008    -0.19100
C2503       C  0.12156096  0.64283356  0.01112505    -0.20900
C2504       C  0.11967472  0.64512259  0.03749691    -0.13500
C2505       C  0.11565043  0.66880768  0.04901096     0.03200
C2506       C  0.11304671  0.69012512  0.03353902    -0.25600
H2507       H  0.11218069  0.72421750  0.95459724     0.08300
H2508       H  0.10851005  0.72763545  0.00028938     0.11900
H2509       H  0.12521808  0.64403162  0.96037549     0.11800
H2510       H  0.12493362  0.62439662  0.00282630     0.11500
H2511       H  0.12173394  0.62835883  0.04891814     0.12100
H2512       H  0.10973774  0.70849116  0.04206311     0.14000
C2513       C  0.95520552  0.67080828  0.87107963    -0.06000
C2514       C  0.96588047  0.64703227  0.87591974    -0.05900
C2515       C  0.99232315  0.64393913  0.87648843    -0.24100
C2516       C  0.00852850  0.66446541  0.87166030     0.18100
C2517       C  0.99768139  0.68809945  0.86575273     0.15400
C2518       C  0.97131056  0.69116732  0.86583077    -0.19100
C2519       C  0.01333141  0.70854423  0.86013307    -0.20900
C2520       C  0.03950267  0.70602709  0.86110434    -0.13500
C2521       C  0.05097879  0.68306754  0.86805763     0.03200
C2522       C  0.03523780  0.66206866  0.87296058    -0.25600
H2523       H  0.95378448  0.63105829  0.88003891     0.08300
H2524       H  0.00007504  0.62557832  0.88090257     0.11900
H2525       H  0.96323645  0.70950877  0.86177324     0.11800
H2526       H  0.00532012  0.72669391  0.85527467     0.11500
H2527       H  0.05079331  0.72256471  0.85694387     0.12100
H2528       H  0.04363695  0.64421353  0.87820441     0.14000
C2529       C  0.13970185  0.63218045  0.80310942    -0.06000
C2530       C  0.16120899  0.61899165  0.79488838    -0.05900
C2531       C  0.16416296  0.61232087  0.76945132    -0.24100
C2532       C  0.14591177  0.61928493  0.75152778     0.18100
C2533       C  0.12343446  0.63125709  0.75964052     0.15400
C2534       C  0.12025744  0.63728689  0.78556590    -0.19100
C2535       C  0.10566255  0.63892541  0.74137123    -0.20900
C2536       C  0.11104886  0.63660118  0.71542561    -0.13500
C2537       C  0.13397120  0.62601538  0.70734442     0.03200
C2538       C  0.15084765  0.61650237  0.72551653    -0.25600
H2539       H  0.17652683  0.61520486  0.80799655     0.08300
H2540       H  0.18150962  0.60317692  0.76356688     0.11900
H2541       H  0.10393171  0.64806688  0.79160616     0.11800
H2542       H  0.08835635  0.64820675  0.74711877     0.11500
H2543       H  0.09814024  0.64466347  0.70174726     0.12100
H2544       H  0.16890870  0.60899037  0.71938834     0.14000
C2545       C  0.20799056  0.64205633  0.88993453    -0.06000
C2546       C  0.22384328  0.65593770  0.90635813    -0.05900
C2547       C  0.25011130  0.65266596  0.90598873    -0.24100
C2548       C  0.26113590  0.63579258  0.88874277     0.18100
C2549       C  0.24524197  0.61999924  0.87384842     0.15400
C2550       C  0.21869992  0.62291542  0.87488395    -0.19100
C2551       C  0.25620811  0.60360839  0.85610682    -0.20900
C2552       C  0.28218929  0.60479798  0.85126393    -0.13500
C2553       C  0.29786505  0.62192963  0.86441789     0.03200
C2554       C  0.28746474  0.63641627  0.88416320    -0.25600
H2555       H  0.21606076  0.67108890  0.91776326     0.08300
H2556       H  0.26186983  0.66487177  0.91766195     0.11900
H2557       H  0.20675398  0.61263193  0.86161907     0.11800
H2558       H  0.24444771  0.59131096  0.84453143     0.11500
H2559       H  0.28975523  0.59379907  0.83568586     0.12100
H2560       H  0.29926894  0.65017228  0.89391542     0.14000
C2561       C  0.12448258  0.74052779  0.80560218    -0.06000
C2562       C  0.13359096  0.73423767  0.78144629    -0.05900
C2563       C  0.13081417  0.75099417  0.76147893    -0.24100
C2564       C  0.11913922  0.77433775  0.76550991     0.18100
C2565       C  0.10829777  0.78013060  0.78924736     0.15400
C2566       C  0.11076180  0.76298449  0.80910040    -0.19100
C2567       C  0.09682864  0.80371123  0.79317721    -0.20900
C2568       C  0.09823717  0.82220579  0.77449479    -0.13500
C2569       C  0.11095206  0.81705049  0.75183316     0.03200
C2570       C  0.11997933  0.79272043  0.74682967    -0.25600
H2571       H  0.14388367  0.71686910  0.77822358     0.08300
H2572       H  0.13897593  0.74627082  0.74327347     0.11900
H2573       H  0.10337120  0.76785740  0.82760556     0.11800
H2574       H  0.08821618  0.80835144  0.81118713     0.11500
H2575       H  0.09113390  0.84097299  0.77846380     0.12100
H2576       H  0.12947967  0.78874445  0.72907445     0.14000
C2577       C  0.31599227  0.87371822  0.05201348    -0.06000
C2578       C  0.29266917  0.87724079  0.03951148    -0.05900
C2579       C  0.29104872  0.87752729  0.01315766    -0.24100
C2580       C  0.31273060  0.87444476  0.99838500     0.18100
C2581       C  0.33639010  0.87079115  0.01038273     0.15400
C2582       C  0.33790331  0.87027166  0.03717174    -0.19100
C2583       C  0.35805058  0.86803194  0.99527743    -0.20900
C2584       C  0.35628846  0.86925123  0.96876600    -0.13500
C2585       C  0.33279328  0.87293069  0.95669255     0.03200
C2586       C  0.31105060  0.87526561  0.97179720    -0.25600
H2587       H  0.27538587  0.87981524  0.05015249     0.08300
H2588       H  0.27275513  0.88035607  0.00431979     0.11900
H2589       H  0.35603125  0.86754174  0.04637319     0.11800
H2590       H  0.37640604  0.86517902  0.00396089     0.11500
H2591       H  0.37336633  0.86726629  0.95767659     0.12100
H2592       H  0.29280631  0.87822907  0.96288407     0.14000
C2593       C  0.18980006  0.75314845  0.89026196    -0.06000
C2594       C  0.18209551  0.77734485  0.89787819    -0.05900
C2595       C  0.19977555  0.79708876  0.89947240    -0.24100
C2596       C  0.22530481  0.79276164  0.89348938     0.18100
C2597       C  0.23328270  0.76796681  0.88759487     0.15400
C2598       C  0.21554093  0.74838493  0.88617687    -0.19100
C2599       C  0.25861569  0.76334778  0.88163152    -0.20900
C2600       C  0.27564084  0.78333083  0.87976717    -0.13500
C2601       C  0.26770874  0.80831870  0.88395302     0.03200
C2602       C  0.24268751  0.81285141  0.89183824    -0.25600
H2603       H  0.16225113  0.78132311  0.90095035     0.08300
H2604       H  0.19329822  0.81591645  0.90419970     0.11900
H2605       H  0.22152537  0.72963665  0.88041537     0.11800
H2606       H  0.26503650  0.74438975  0.87734713     0.11500
H2607       H  0.29488282  0.77925911  0.87408154     0.12100
H2608       H  0.23637318  0.83202722  0.89520076     0.14000
C2609       C  0.18663447  0.89101798  0.75614508    -0.06000
C2610       C  0.17814271  0.89619772  0.78086943    -0.05900
C2611       C  0.19530373  0.89848874  0.80103293    -0.24100
C2612       C  0.22134473  0.89562213  0.79692099     0.18100
C2613       C  0.23015115  0.89181345  0.77191191     0.15400
C2614       C  0.21281647  0.88969372  0.75173848    -0.19100
C2615       C  0.25608367  0.88868970  0.76764565    -0.20900
C2616       C  0.27289190  0.88743343  0.78801882    -0.13500
C2617       C  0.26426638  0.88978342  0.81304441     0.03200
C2618       C  0.23856282  0.89492044  0.81741343    -0.25600
H2619       H  0.15809914  0.89736003  0.78486509     0.08300
H2620       H  0.18811462  0.90152087  0.81998647     0.11900
H2621       H  0.21968286  0.88582517  0.73279488     0.11800
H2622       H  0.26322169  0.88590864  0.74863107     0.11500
H2623       H  0.29262242  0.88337075  0.78430667     0.12100
H2624       H  0.23171713  0.89632216  0.83668712     0.14000
C2625       C  0.37111476  0.79712651  0.87656401    -0.06000
C2626       C  0.36083860  0.78446237  0.89739809    -0.05900
C2627       C  0.36212748  0.75809858  0.89891180    -0.24100
C2628       C  0.37403948  0.74404977  0.87975224     0.18100
C2629       C  0.38639179  0.75690986  0.85990031     0.15400
C2630       C  0.38459175  0.78333059  0.85828186    -0.19100
C2631       C  0.39869520  0.74300056  0.84096069    -0.20900
C2632       C  0.39708246  0.71667172  0.84055277    -0.13500
C2633       C  0.38300108  0.70380092  0.85888770     0.03200
C2634       C  0.37215882  0.71749466  0.87896321    -0.25600
H2635       H  0.35002252  0.79476597  0.91142815     0.08300
H2636       H  0.35270697  0.74864034  0.91437411     0.11900
H2637       H  0.39232490  0.79303023  0.84202463     0.11800
H2638       H  0.40833812  0.75251357  0.82566317     0.11500
H2639       H  0.40495256  0.70646337  0.82458714     0.12100
H2640       H  0.36072787  0.70768782  0.89278967     0.14000
C2641       C  0.37472910  0.87319644  0.70555510    -0.06000
C2642       C  0.36264997  0.89581063  0.71217854    -0.05900
C2643       C  0.36183343  0.90368492  0.73752737    -0.24100
C2644       C  0.37319741  0.88905002  0.75648666     0.18100
C2645       C  0.38779674  0.86781476  0.74954103     0.15400
C2646       C  0.38842188  0.86000325  0.72408975    -0.19100
C2647       C  0.39934993  0.85329401  0.76843871    -0.20900
C2648       C  0.39413259  0.85801966  0.79397724    -0.13500
C2649       C  0.37722599  0.87719249  0.80089992     0.03200
C2650       C  0.36801413  0.89361538  0.78220467    -0.25600
H2651       H  0.35182200  0.90605831  0.69818368     0.08300
H2652       H  0.35079983  0.92018388  0.74248754     0.11900
H2653       H  0.39766214  0.84243355  0.71902340     0.11800
H2654       H  0.41079150  0.83708531  0.76343258     0.11500
H2655       H  0.40100707  0.84490871  0.80805011     0.12100
H2656       H  0.35463663  0.90820546  0.78745913     0.14000
C2657       C  0.37683875  0.18532528  0.45687596    -0.06000
C2658       C  0.38165282  0.20862588  0.46900838    -0.05900
C2659       C  0.38411819  0.21033109  0.49523050    -0.24100
C2660       C  0.38150770  0.18882754  0.51019022     0.18100
C2661       C  0.37655815  0.16520607  0.49850887     0.15400
C2662       C  0.37454772  0.16349928  0.47182073    -0.19100
C2663       C  0.37347931  0.14387200  0.51384275    -0.20900
C2664       C  0.37504771  0.14599546  0.54031355    -0.13500
C2665       C  0.38010337  0.16942560  0.55204822     0.03200
C2666       C  0.38350152  0.19072904  0.53668206    -0.25600
H2667       H  0.38382944  0.22573927  0.45812561     0.08300
H2668       H  0.38792068  0.22859122  0.50383209     0.11900
H2669       H  0.37082867  0.14542584  0.46279697     0.11800
H2670       H  0.36962352  0.12556624  0.50538694     0.11500
H2671       H  0.37237899  0.12924182  0.55162318     0.12100
H2672       H  0.38722383  0.20897950  0.54536153     0.14000
C2673       C  0.18234175  0.45179787  0.62301827    -0.06000
C2674       C  0.20614005  0.46378271  0.62193937    -0.05900
C2675       C  0.20828967  0.49002023  0.62233592    -0.24100
C2676       C  0.18668281  0.50514827  0.62365509     0.18100
C2677       C  0.16254546  0.49367192  0.62484707     0.15400
C2678       C  0.16047832  0.46698147  0.62471606    -0.19100
C2679       C  0.14103183  0.50920328  0.62594029    -0.20900
C2680       C  0.14345367  0.53566142  0.62575059    -0.13500
C2681       C  0.16744682  0.54720518  0.62459937     0.03200
C2682       C  0.18896690  0.53159985  0.62363963    -0.25600
H2683       H  0.22335921  0.45280250  0.62085853     0.08300
H2684       H  0.22695121  0.49849547  0.62146200     0.11900
H2685       H  0.14199907  0.45812093  0.62552782     0.11800
H2686       H  0.12230722  0.50089798  0.62682745     0.11500
H2687       H  0.12652420  0.54709084  0.62650980     0.12100
H2688       H  0.20765484  0.54002232  0.62268261     0.14000
C2689       C  0.16454222  0.37300133  0.45088527    -0.06000
C2690       C  0.14111780  0.37226028  0.46346544    -0.05900
C2691       C  0.14000017  0.37158677  0.49005212    -0.24100
C2692       C  0.16229416  0.37137786  0.50467465     0.18100
C2693       C  0.18587221  0.37113108  0.49215589     0.15400
C2694       C  0.18684575  0.37204774  0.46554091    -0.19100
C2695       C  0.20821524  0.37031842  0.50645229    -0.20900
C2696       C  0.20736653  0.37043426  0.53288069    -0.13500
C2697       C  0.18417362  0.37156787  0.54585783     0.03200
C2698       C  0.16154919  0.37173857  0.53148879    -0.25600
H2699       H  0.12362298  0.37272427  0.45275962     0.08300
H2700       H  0.12167964  0.37150761  0.49917781     0.11900
H2701       H  0.20508942  0.37214561  0.45623024     0.11800
H2702       H  0.22646139  0.36989835  0.49717601     0.11500
H2703       H  0.22509438  0.37017011  0.54320570     0.12100
H2704       H  0.14347943  0.37232470  0.54109665     0.14000
C2705       C  0.24326291  0.30354930  0.62106736    -0.06000
C2706       C  0.23542012  0.27882518  0.62671359    -0.05900
C2707       C  0.25260322  0.25892731  0.62631031    -0.24100
C2708       C  0.27797147  0.26332029  0.62020231     0.18100
C2709       C  0.28591960  0.28776331  0.61312176     0.15400
C2710       C  0.26845869  0.30775862  0.61351838    -0.19100
C2711       C  0.31143018  0.29190001  0.60688680    -0.20900
C2712       C  0.32906823  0.27228954  0.60886726    -0.13500
C2713       C  0.32138799  0.24842500  0.61725437     0.03200
C2714       C  0.29572843  0.24389544  0.62222893    -0.25600
H2715       H  0.21612990  0.27495300  0.63238216     0.08300
H2716       H  0.24620512  0.24022918  0.63157259     0.11900
H2717       H  0.27476514  0.32670656  0.60908898     0.11800
H2718       H  0.31788816  0.31048763  0.60135667     0.11500
H2719       H  0.34886449  0.27612109  0.60528235     0.12100
H2720       H  0.28979399  0.22542481  0.62875365     0.14000
C2721       C  0.37582300  0.45281260  0.83527756    -0.06000
C2722       C  0.37774050  0.46396703  0.85947075    -0.05900
C2723       C  0.37688150  0.49044484  0.86241446    -0.24100
C2724       C  0.37428775  0.50623438  0.84120664     0.18100
C2725       C  0.37210587  0.49494348  0.81699553     0.15400
C2726       C  0.37273095  0.46867307  0.81426568    -0.19100
C2727       C  0.36970531  0.51001908  0.79556718    -0.20900
C2728       C  0.37005222  0.53614230  0.79781714    -0.13500
C2729       C  0.37268175  0.54808722  0.82156305     0.03200
C2730       C  0.37431869  0.53295586  0.84344716    -0.25600
H2731       H  0.38003971  0.45227526  0.87603575     0.08300
H2732       H  0.37855420  0.49856293  0.88121981     0.11900
H2733       H  0.37120193  0.46060472  0.79540361     0.11800
H2734       H  0.36790625  0.50158689  0.77689216     0.11500
H2735       H  0.36839717  0.54709903  0.78066126     0.12100
H2736       H  0.37637739  0.54184553  0.86187041     0.14000
C2737       C  0.31300098  0.39261379  0.75734283    -0.06000
C2738       C  0.32149887  0.40443942  0.73512387    -0.05900
C2739       C  0.30543401  0.40709017  0.71426858    -0.24100
C2740       C  0.28061058  0.39788707  0.71523497     0.18100
C2741       C  0.27133849  0.38794533  0.73825765     0.15400
C2742       C  0.28747183  0.38566679  0.75922592    -0.19100
C2743       C  0.24662604  0.37862587  0.73939552    -0.20900
C2744       C  0.23205390  0.37703023  0.71747673    -0.13500
C2745       C  0.24175796  0.38498826  0.69408937     0.03200
C2746       C  0.26555114  0.39668731  0.69321916    -0.25600
H2747       H  0.34104495  0.41029383  0.73325261     0.08300
H2748       H  0.31285050  0.41504961  0.69697051     0.11900
H2749       H  0.28061854  0.37674903  0.77630458     0.11800
H2750       H  0.23908214  0.37122271  0.75689464     0.11500
H2751       H  0.21352340  0.36829612  0.71853993     0.12100
H2752       H  0.27311489  0.40278124  0.67521582     0.14000
C2753       C  0.39014936  0.32098226  0.74986821    -0.06000
C2754       C  0.39811918  0.32833327  0.72573620    -0.05900
C2755       C  0.40112653  0.31017090  0.70655442    -0.24100
C2756       C  0.39632891  0.28454270  0.71147614     0.18100
C2757       C  0.38984916  0.27713799  0.73629019     0.15400
C2758       C  0.38675979  0.29537016  0.75520634    -0.19100
C2759       C  0.38517842  0.25174676  0.74157787    -0.20900
C2760       C  0.38516875  0.23394100  0.72213530    -0.13500
C2761       C  0.38977023  0.24117263  0.69700562     0.03200
C2762       C  0.39642011  0.26639466  0.69190485    -0.25600
H2763       H  0.40058910  0.34813419  0.72138782     0.08300
H2764       H  0.40622009  0.31624346  0.68770779     0.11900
H2765       H  0.38055973  0.28976693  0.77390544     0.11800
H2766       H  0.38046656  0.24580796  0.76058081     0.11500
H2767       H  0.38025585  0.21463144  0.72665131     0.12100
H2768       H  0.39997240  0.27220021  0.67260821     0.14000
C2769       C  0.12264818  0.32810406  0.95361489    -0.06000
C2770       C  0.11720713  0.35172045  0.96463001    -0.05900
C2771       C  0.11557172  0.35442943  0.99103743    -0.24100
C2772       C  0.11912153  0.33351895  0.00688146     0.18100
C2773       C  0.12494682  0.30984913  0.99586472     0.15400
C2774       C  0.12693746  0.30739708  0.96954207    -0.19100
C2775       C  0.12806040  0.28870649  0.01126139    -0.20900
C2776       C  0.12470588  0.29071250  0.03730814    -0.13500
C2777       C  0.11870436  0.31397508  0.04864911     0.03200
C2778       C  0.11642609  0.33556477  0.03340668    -0.25600
H2779       H  0.11381302  0.36799849  0.95282854     0.08300
H2780       H  0.11106197  0.37275257  0.99902554     0.11900
H2781       H  0.13121236  0.28904672  0.96143829     0.11800
H2782       H  0.13261513  0.27045995  0.00310300     0.11500
H2783       H  0.12689425  0.27394342  0.04872661     0.12100
H2784       H  0.11175841  0.35356947  0.04203493     0.14000
C2785       C  0.20664237  0.34970507  0.87950242    -0.06000
C2786       C  0.22031948  0.32933839  0.88938168    -0.05900
C2787       C  0.24674024  0.32977740  0.89015611    -0.24100
C2788       C  0.26005877  0.35079201  0.88120061     0.18100
C2789       C  0.24652068  0.37237954  0.87329110     0.15400
C2790       C  0.21976455  0.37164698  0.87227690    -0.19100
C2791       C  0.26008610  0.39351570  0.86476118    -0.20900
C2792       C  0.28648459  0.39247209  0.86205108    -0.13500
C2793       C  0.29973230  0.37024987  0.86761796     0.03200
C2794       C  0.28650108  0.34981612  0.87815811    -0.25600
H2795       H  0.21049859  0.31234198  0.89502922     0.08300
H2796       H  0.25674873  0.31315530  0.89654252     0.11900
H2797       H  0.20935891  0.38729386  0.86426542     0.11800
H2798       H  0.25016275  0.41033740  0.85881455     0.11500
H2799       H  0.29624440  0.40823798  0.85347940     0.12100
H2800       H  0.29655986  0.33247553  0.88218531     0.14000
C2801       C  0.12997647  0.35971868  0.79553518    -0.06000
C2802       C  0.14231018  0.38289628  0.79188318    -0.05900
C2803       C  0.14524368  0.39260994  0.76746882    -0.24100
C2804       C  0.13552099  0.37947703  0.74638574     0.18100
C2805       C  0.12094594  0.35741928  0.75016369     0.15400
C2806       C  0.11844487  0.34757337  0.77468765    -0.19100
C2807       C  0.11077780  0.34455989  0.72914835    -0.20900
C2808       C  0.11695091  0.35208360  0.70458892    -0.13500
C2809       C  0.13357499  0.37237201  0.70065772     0.03200
C2810       C  0.14188871  0.38672436  0.72161358    -0.25600
H2811       H  0.15129383  0.39254561  0.80766830     0.08300
H2812       H  0.15620787  0.40972215  0.76496992     0.11900
H2813       H  0.10870855  0.32974450  0.77739995     0.11800
H2814       H  0.09942046  0.32770375  0.73168604     0.11500
H2815       H  0.11095150  0.34036782  0.68877433     0.12100
H2816       H  0.15520920  0.40203957  0.71872675     0.14000
C2817       C  0.32778680  0.12273494  0.95674807    -0.06000
C2818       C  0.35114008  0.12838646  0.96841861    -0.05900
C2819       C  0.35361381  0.12840974  0.99491427    -0.24100
C2820       C  0.33273687  0.12295788  0.01036871     0.18100
C2821       C  0.30921414  0.11733998  0.99878075     0.15400
C2822       C  0.30693284  0.11713445  0.97224975    -0.19100
C2823       C  0.28817651  0.11216211  0.01389097    -0.20900
C2824       C  0.29021854  0.11280395  0.04020801    -0.13500
C2825       C  0.31339861  0.11838359  0.05225719     0.03200
C2826       C  0.33479224  0.12322350  0.03710806    -0.25600
H2827       H  0.36756977  0.13272549  0.95704751     0.08300
H2828       H  0.37183714  0.13281140  0.00330695     0.11900
H2829       H  0.28875715  0.11278494  0.96369000     0.11800
H2830       H  0.27001109  0.10777062  0.00534793     0.11500
H2831       H  0.27345425  0.10876110  0.05120844     0.12100
H2832       H  0.35277009  0.12760544  0.04604528     0.14000
C2833       C  0.33800080  0.95264419  0.88105561    -0.06000
C2834       C  0.36055356  0.96510178  0.88784361    -0.05900
C2835       C  0.36158695  0.99158853  0.88873919    -0.24100
C2836       C  0.34019188  0.00599609  0.88242856     0.18100
C2837       C  0.31769641  0.99344518  0.87500734     0.15400
C2838       C  0.31671425  0.96701143  0.87455754    -0.19100
C2839       C  0.29635692  0.00747773  0.86832288    -0.20900
C2840       C  0.29700782  0.03374937  0.86937952    -0.13500
C2841       C  0.31899845  0.04669833  0.87717941     0.03200
C2842       C  0.34072226  0.03262639  0.88351221    -0.25600
H2843       H  0.37714998  0.95434963  0.89304748     0.08300
H2844       H  0.37904385  0.00078079  0.89446303     0.11900
H2845       H  0.29930036  0.95754385  0.86906807     0.11800
H2846       H  0.27903984  0.99811678  0.86242423     0.11500
H2847       H  0.28006403  0.04395651  0.86419012     0.12100
H2848       H  0.35783173  0.04230360  0.88951175     0.14000
C2849       C  0.18396868  0.24991100  0.89193778    -0.06000
C2850       C  0.17569313  0.22765988  0.90374394    -0.05900
C2851       C  0.19270600  0.20807109  0.90860591    -0.24100
C2852       C  0.21816678  0.21047531  0.90161497     0.18100
C2853       C  0.22690322  0.23371502  0.89181224     0.15400
C2854       C  0.20984601  0.25325739  0.88726455    -0.19100
C2855       C  0.25218497  0.23640239  0.88465797    -0.20900
C2856       C  0.26799689  0.21551051  0.88457314    -0.13500
C2857       C  0.25890374  0.19177602  0.89200095     0.03200
C2858       C  0.23449066  0.18955477  0.90207391    -0.25600
H2859       H  0.15585099  0.22481470  0.90793028     0.08300
H2860       H  0.18568237  0.19058326  0.91647143     0.11900
H2861       H  0.21653864  0.27039238  0.87840250     0.11800
H2862       H  0.25923696  0.25417626  0.87745202     0.11500
H2863       H  0.28693424  0.21748540  0.87701062     0.12100
H2864       H  0.22745469  0.17119635  0.90768939     0.14000
C2865       C  0.38151051  0.29180929  0.85325149    -0.06000
C2866       C  0.39367051  0.27600707  0.83562172    -0.05900
C2867       C  0.39463184  0.24992741  0.83912110    -0.24100
C2868       C  0.38293688  0.23899211  0.86011751     0.18100
C2869       C  0.37220028  0.25478408  0.87895054     0.15400
C2870       C  0.37197905  0.28124210  0.87563437    -0.19100
C2871       C  0.35969062  0.24367780  0.89945884    -0.20900
C2872       C  0.35562610  0.21753753  0.89991019    -0.13500
C2873       C  0.36471761  0.20194471  0.88037335     0.03200
C2874       C  0.37955200  0.21263764  0.86123730    -0.25600
H2875       H  0.40115081  0.28377279  0.81826009     0.08300
H2876       H  0.40300695  0.23820242  0.82452196     0.11900
H2877       H  0.36218310  0.29321338  0.88909997     0.11800
H2878       H  0.35129832  0.25534541  0.91408395     0.11500
H2879       H  0.34356723  0.20971072  0.91443845     0.12100
H2880       H  0.38584358  0.20082616  0.84564930     0.14000
C2881       C  0.36273940  0.12141788  0.80093712    -0.06000
C2882       C  0.35149030  0.10143640  0.78740135    -0.05900
C2883       C  0.35384961  0.09988686  0.76102763    -0.24100
C2884       C  0.36766124  0.11823339  0.74783883     0.18100
C2885       C  0.38098921  0.13703888  0.76164116     0.15400
C2886       C  0.37825470  0.13862892  0.78807570    -0.19100
C2887       C  0.39514071  0.15516511  0.74858696    -0.20900
C2888       C  0.39441706  0.15594146  0.72216209    -0.13500
C2889       C  0.37941651  0.13879168  0.70836140     0.03200
C2890       C  0.36674284  0.11938305  0.72119170    -0.25600
H2891       H  0.33907182  0.08831005  0.79694940     0.08300
H2892       H  0.34366973  0.08520739  0.75083893     0.11900
H2893       H  0.38666510  0.15430689  0.79842889     0.11800
H2894       H  0.40561026  0.16961579  0.75882337     0.11500
H2895       H  0.40397023  0.17124066  0.71256221     0.12100
H2896       H  0.35481007  0.10637059  0.71061068     0.14000
C2897       C  0.12315205  0.05134849  0.66905374    -0.06000
C2898       C  0.12833575  0.03959333  0.64565346    -0.05900
C2899       C  0.12858065  0.01313474  0.64342711    -0.24100
C2900       C  0.12394368  0.99795412  0.66463455     0.18100
C2901       C  0.11900922  0.00983024  0.68817104     0.15400
C2902       C  0.11848399  0.03618825  0.69016248    -0.19100
C2903       C  0.11475839  0.99523876  0.70960050    -0.20900
C2904       C  0.11551592  0.96910036  0.70798183    -0.13500
C2905       C  0.12038820  0.95667029  0.68486581     0.03200
C2906       C  0.12435161  0.97125577  0.66299932    -0.25600
H2907       H  0.13199755  0.05085575  0.62903437     0.08300
H2908       H  0.13249469  0.00457822  0.62518191     0.11900
H2909       H  0.11470072  0.04492080  0.70837798     0.11800
H2910       H  0.11094576  0.00405673  0.72775510     0.11500
H2911       H  0.11209378  0.95852661  0.72510815     0.12100
H2912       H  0.12820628  0.96197107  0.64509079     0.14000
C2913       C  0.13772912  0.20445675  0.63222950    -0.06000
C2914       C  0.15800691  0.21145805  0.61671789    -0.05900
C2915       C  0.16075632  0.23642505  0.60878757    -0.24100
C2916       C  0.14372138  0.25496933  0.61702485     0.18100
C2917       C  0.12273830  0.24794134  0.63201211     0.15400
C2918       C  0.11961636  0.22256149  0.63913419    -0.19100
C2919       C  0.10658527  0.26674022  0.64146264    -0.20900
C2920       C  0.11234220  0.29227338  0.63783417    -0.13500
C2921       C  0.13373401  0.29936664  0.62390942     0.03200
C2922       C  0.14871027  0.28062490  0.61260295    -0.25600
H2923       H  0.17238810  0.19778333  0.61173070     0.08300
H2924       H  0.17706960  0.24150342  0.59752989     0.11900
H2925       H  0.10443183  0.21732247  0.65182624     0.11800
H2926       H  0.09059042  0.26176952  0.65320693     0.11500
H2927       H  0.10120345  0.30648609  0.64749823     0.12100
H2928       H  0.16588313  0.28606435  0.60283477     0.14000
C2929       C  0.20848490  0.12141016  0.64734889    -0.06000
C2930       C  0.22346191  0.10541772  0.66223543    -0.05900
C2931       C  0.24953154  0.10382145  0.65832076    -0.24100
C2932       C  0.26114434  0.11897850  0.64007063     0.18100
C2933       C  0.24594877  0.13398748  0.62397152     0.15400
C2934       C  0.21957336  0.13459658  0.62731138    -0.19100
C2935       C  0.25757618  0.15012678  0.60661333    -0.20900
C2936       C  0.28380303  0.15326977  0.60699191    -0.13500
C2937       C  0.29886809  0.13975164  0.62410562     0.03200
C2938       C  0.28764167  0.12149250  0.63954858    -0.25600
H2939       H  0.21514867  0.09530353  0.67791843     0.08300
H2940       H  0.26079491  0.09222682  0.67083327     0.11900
H2941       H  0.20812606  0.14741572  0.61621908     0.11800
H2942       H  0.24630638  0.16182832  0.59420660     0.11500
H2943       H  0.29219507  0.16778295  0.59532162     0.12100
H2944       H  0.29915952  0.11162560  0.65330291     0.14000
C2945       C  0.10796542  0.19562368  0.73923847    -0.06000
C2946       C  0.11063231  0.22075432  0.73130602    -0.05900
C2947       C  0.10814704  0.24060534  0.74854359    -0.24100
C2948       C  0.10333924  0.23557907  0.77405009     0.18100
C2949       C  0.09822808  0.21058340  0.78179886     0.15400
C2950       C  0.10014581  0.19072014  0.76415919    -0.19100
C2951       C  0.09354343  0.20572382  0.80746916    -0.20900
C2952       C  0.09635521  0.22500563  0.82553144    -0.13500
C2953       C  0.10375166  0.24924840  0.81801468     0.03200
C2954       C  0.10585808  0.25476116  0.79221058    -0.25600
H2955       H  0.11611341  0.22499856  0.71205830     0.08300
H2956       H  0.11167070  0.25972467  0.74226278     0.11900
H2957       H  0.09788960  0.17139886  0.77041359     0.11800
H2958       H  0.08936938  0.18673850  0.81374278     0.11500
H2959       H  0.09472770  0.22053865  0.84543119     0.12100
H2960       H  0.11147106  0.27358503  0.78646582     0.14000
C2961       C  0.25448116  0.11676118  0.81204130    -0.06000
C2962       C  0.26310745  0.11686038  0.78688573    -0.05900
C2963       C  0.24616936  0.11543416  0.76666621    -0.24100
C2964       C  0.22014117  0.11390083  0.77107529     0.18100
C2965       C  0.21107350  0.11217038  0.79615546     0.15400
C2966       C  0.22837624  0.11345298  0.81659535    -0.19100
C2967       C  0.18480695  0.11055876  0.80020106    -0.20900
C2968       C  0.16781636  0.11211701  0.77974185    -0.13500
C2969       C  0.17688464  0.11530377  0.75502992     0.03200
C2970       C  0.20304792  0.11548182  0.75080047    -0.25600
H2971       H  0.28305310  0.11902092  0.78275310     0.08300
H2972       H  0.25340680  0.11650028  0.74753753     0.11900
H2973       H  0.22142914  0.11334228  0.83586803     0.11800
H2974       H  0.17739287  0.10915265  0.81922938     0.11500
H2975       H  0.14766190  0.11235862  0.78335761     0.12100
H2976       H  0.21007209  0.11816818  0.73173151     0.14000
C2977       C  0.45657699  0.16870306  0.63431987    -0.06000
C2978       C  0.46683819  0.14424846  0.63311169    -0.05900
C2979       C  0.49301795  0.14056034  0.63463887    -0.24100
C2980       C  0.50942083  0.16128790  0.63709571     0.18100
C2981       C  0.49914040  0.18584554  0.63929281     0.15400
C2982       C  0.47290172  0.18934036  0.63819505    -0.19100
C2983       C  0.51528883  0.20670182  0.64143415    -0.20900
C2984       C  0.54134690  0.20347589  0.63977350    -0.13500
C2985       C  0.55181647  0.17932294  0.63642899     0.03200
C2986       C  0.53585316  0.15810021  0.63614644    -0.25600
H2987       H  0.45464929  0.12796747  0.63053903     0.08300
H2988       H  0.50045719  0.12157832  0.63311198     0.11900
H2989       H  0.46528816  0.20829340  0.63942174     0.11800
H2990       H  0.50774666  0.22561709  0.64337588     0.11500
H2991       H  0.55340595  0.22004523  0.64046513     0.12100
H2992       H  0.54384847  0.13944082  0.63358400     0.14000
C2993       C  0.62375203  0.16750476  0.54996877    -0.06000
C2994       C  0.61753257  0.14349587  0.54014683    -0.05900
C2995       C  0.61710914  0.13898441  0.51388566    -0.24100
C2996       C  0.62279242  0.15841267  0.49680197     0.18100
C2997       C  0.62906389  0.18258217  0.50650948     0.15400
C2998       C  0.62961722  0.18690776  0.53281994    -0.19100
C2999       C  0.63435407  0.20225097  0.48974599    -0.20900
C3000       C  0.63285135  0.19828591  0.46364245    -0.13500
C3001       C  0.62648491  0.17448037  0.45353230     0.03200
C3002       C  0.62187575  0.15436125  0.47026659    -0.25600
H3003       H  0.61290485  0.12816950  0.55278178     0.08300
H3004       H  0.61214357  0.12033016  0.50694317     0.11900
H3005       H  0.63443421  0.20556251  0.53991252     0.11800
H3006       H  0.63923852  0.22088389  0.49682689     0.11500
H3007       H  0.63658287  0.21402739  0.45119645     0.12100
H3008       H  0.61669808  0.13599058  0.46270847     0.14000
C3009       C  0.81872427  0.54932969  0.62378129    -0.06000
C3010       C  0.79497226  0.53917224  0.63005363    -0.05900
C3011       C  0.79149684  0.51324048  0.63231592    -0.24100
C3012       C  0.81162639  0.49671304  0.62797854     0.18100
C3013       C  0.83577288  0.50640753  0.62189761     0.15400
C3014       C  0.83932297  0.53283243  0.62016866    -0.19100
C3015       C  0.85561469  0.48938631  0.61713518    -0.20900
C3016       C  0.85137491  0.46316751  0.61788274    -0.13500
C3017       C  0.82728734  0.45349186  0.62367497     0.03200
C3018       C  0.80766141  0.47058993  0.62907993    -0.25600
H3019       H  0.77888588  0.55141434  0.63321544     0.08300
H3020       H  0.77288489  0.50608680  0.63704038     0.11900
H3021       H  0.85768736  0.54044035  0.61522076     0.11800
H3022       H  0.87428409  0.49633391  0.61239226     0.11500
H3023       H  0.86683180  0.45049296  0.61359299     0.12100
H3024       H  0.78891008  0.46360985  0.63354640     0.14000
C3025       C  0.81231370  0.37509267  0.54493974    -0.06000
C3026       C  0.78819003  0.37626399  0.53372848    -0.05900
C3027       C  0.78524122  0.37428618  0.50760919    -0.24100
C3028       C  0.80642427  0.37158485  0.49204449     0.18100
C3029       C  0.83084105  0.37008233  0.50292965     0.15400
C3030       C  0.83363171  0.37140192  0.52947613    -0.19100
C3031       C  0.85194952  0.36796748  0.48696132    -0.20900
C3032       C  0.84890559  0.36803598  0.46055433    -0.13500
C3033       C  0.82466512  0.36975955  0.44968620     0.03200
C3034       C  0.80350887  0.37105681  0.46570912    -0.25600
H3035       H  0.77145947  0.37869584  0.54527008     0.08300
H3036       H  0.76639077  0.37538265  0.49954652     0.11900
H3037       H  0.85229381  0.37047716  0.53798188     0.11800
H3038       H  0.87083991  0.36677300  0.49487831     0.11500
H3039       H  0.86549277  0.36686907  0.44864884     0.12100
H3040       H  0.78465216  0.37248882  0.45769505     0.14000
C3041       C  0.74069533  0.32385428  0.60641950    -0.06000
C3042       C  0.71596617  0.32970729  0.59901498    -0.05900
C3043       C  0.69826399  0.31028064  0.59555200    -0.24100
C3044       C  0.70534739  0.28505772  0.59958839     0.18100
C3045       C  0.73086257  0.27923049  0.60495620     0.15400
C3046       C  0.74829061  0.29869049  0.60828409    -0.19100
C3047       C  0.73813140  0.25424628  0.60927281    -0.20900
C3048       C  0.71980323  0.23547472  0.61110190    -0.13500
C3049       C  0.69410286  0.24148533  0.60831209     0.03200
C3050       C  0.68710645  0.26592320  0.60079234    -0.25600
H3051       H  0.70996888  0.34918694  0.59770101     0.08300
H3052       H  0.67880149  0.31505149  0.59130244     0.11900
H3053       H  0.76730553  0.29438859  0.61447567     0.11800
H3054       H  0.75773110  0.24955130  0.61299363     0.11500
H3055       H  0.72560565  0.21663208  0.61639625     0.12100
H3056       H  0.66730957  0.27065742  0.59838660     0.14000
C3057       C  0.62821550  0.45014382  0.83377868    -0.06000
C3058       C  0.63487864  0.46289198  0.85631164    -0.05900
C3059       C  0.63588196  0.48937758  0.85727653    -0.24100
C3060       C  0.63042192  0.50371760  0.83567408     0.18100
C3061       C  0.62456610  0.49103879  0.81275656     0.15400
C3062       C  0.62341876  0.46450916  0.81197468    -0.19100
C3063       C  0.61965617  0.50508870  0.79095789    -0.20900
C3064       C  0.61993543  0.53142578  0.79187521    -0.13500
C3065       C  0.62490311  0.54449944  0.81465138     0.03200
C3066       C  0.63040986  0.53041909  0.83655748    -0.25600
H3067       H  0.63898209  0.45238792  0.87333751     0.08300
H3068       H  0.64070329  0.49864074  0.87499315     0.11900
H3069       H  0.61867501  0.45505755  0.79431992     0.11800
H3070       H  0.61532221  0.49569729  0.77317756     0.11500
H3071       H  0.61569496  0.54160831  0.77468079     0.12100
H3072       H  0.63457422  0.54016761  0.85418756     0.14000
C3073       C  0.55031050  0.37091585  0.83592081    -0.06000
C3074       C  0.53986043  0.37427793  0.86020177    -0.05900
C3075       C  0.51360242  0.37456118  0.86373436    -0.24100
C3076       C  0.49715186  0.37169792  0.84303647     0.18100
C3077       C  0.50748014  0.36798526  0.81860278     0.15400
C3078       C  0.53385925  0.36739564  0.81524102    -0.19100
C3079       C  0.49126153  0.36555149  0.79776071    -0.20900
C3080       C  0.46516868  0.36760268  0.80089076    -0.13500
C3081       C  0.45455887  0.37169407  0.82495526     0.03200
C3082       C  0.47064329  0.37314921  0.84616219    -0.25600
H3083       H  0.55201495  0.37697194  0.87653814     0.08300
H3084       H  0.50617726  0.37745236  0.88261420     0.11900
H3085       H  0.54154372  0.36482172  0.79640517     0.11800
H3086       H  0.49877533  0.36261235  0.77891596     0.11500
H3087       H  0.45313905  0.36615444  0.78429670     0.12100
H3088       H  0.46266035  0.37643389  0.86475667     0.14000
C3089       C  0.62199927  0.30317034  0.76648169    -0.06000
C3090       C  0.62979557  0.27863267  0.77286056    -0.05900
C3091       C  0.63039315  0.25946200  0.75468924    -0.24100
C3092       C  0.62309092  0.26433256  0.72973103     0.18100
C3093       C  0.61348314  0.28832811  0.72329664     0.15400
C3094       C  0.61293746  0.30766295  0.74177629    -0.19100
C3095       C  0.60575754  0.29276404  0.69821397    -0.20900
C3096       C  0.60878272  0.27404833  0.67952650    -0.13500
C3097       C  0.61985855  0.25082614  0.68565117     0.03200
C3098       C  0.62630913  0.24588110  0.71091410    -0.25600
H3099       H  0.63661660  0.27445798  0.79171886     0.08300
H3100       H  0.63746666  0.24104018  0.75997054     0.11900
H3101       H  0.60677022  0.32642576  0.73657276     0.11800
H3102       H  0.59812627  0.31094038  0.69290030     0.11500
H3103       H  0.60366565  0.27814147  0.66012707     0.12100
H3104       H  0.63458073  0.22781737  0.71577476     0.14000
C3105       C  0.69180281  0.38549489  0.76487752    -0.06000
C3106       C  0.71656013  0.38029294  0.77303492    -0.05900
C3107       C  0.73696138  0.38305643  0.75667282    -0.24100
C3108       C  0.73284246  0.39054124  0.73166718     0.18100
C3109       C  0.70823140  0.39760005  0.72379197     0.15400
C3110       C  0.68780633  0.39546381  0.74068117    -0.19100
C3111       C  0.70423377  0.40479760  0.69863352    -0.20900
C3112       C  0.72384686  0.40294190  0.68102830    -0.13500
C3113       C  0.74783182  0.39401546  0.68832338     0.03200
C3114       C  0.75251628  0.38913314  0.71398457    -0.25600
H3115       H  0.71995458  0.37291275  0.79181680     0.08300
H3116       H  0.75571427  0.37786933  0.76312873     0.11900
H3117       H  0.66869988  0.39940895  0.73433812     0.11800
H3118       H  0.68561043  0.41048529  0.69224965     0.11500
H3119       H  0.71975986  0.40702194  0.66138728     0.12100
H3120       H  0.77098066  0.38246613  0.71989965     0.14000
C3121       C  0.95275423  0.13596515  0.67597711    -0.06000
C3122       C  0.96412920  0.14826857  0.69683220    -0.05900
C3123       C  0.99028310  0.15086755  0.69859097    -0.24100
C3124       C  0.00584732  0.14121752  0.67954699     0.18100
C3125       C  0.99492033  0.12979462  0.65784782     0.15400
C3126       C  0.96830971  0.12731207  0.65609421    -0.19100
C3127       C  0.01094239  0.12037324  0.63882351    -0.20900
C3128       C  0.03736915  0.12127434  0.64186773    -0.13500
C3129       C  0.04821408  0.13153952  0.66401515     0.03200
C3130       C  0.03220835  0.14208904  0.68241492    -0.25600
H3131       H  0.95278647  0.15545313  0.71230282     0.08300
H3132       H  0.99837117  0.15987618  0.71523506     0.11900
H3133       H  0.95987162  0.11787748  0.63987048     0.11800
H3134       H  0.00304966  0.11170009  0.62192585     0.11500
H3135       H  0.04926802  0.11308192  0.62735549     0.12100
H3136       H  0.04026597  0.15037468  0.69945869     0.14000
C3137       C  0.87365387  0.95166807  0.66399038    -0.06000
C3138       C  0.86623579  0.96300124  0.64111048    -0.05900
C3139       C  0.86701682  0.98937741  0.63825109    -0.24100
C3140       C  0.87522967  0.00510459  0.65821132     0.18100
C3141       C  0.88300409  0.99388028  0.68113442     0.15400
C3142       C  0.88216783  0.96744804  0.68387244    -0.19100
C3143       C  0.89137783  0.00927001  0.70112057    -0.20900
C3144       C  0.89170030  0.03550658  0.69870505    -0.13500
C3145       C  0.88361511  0.04727480  0.67625019     0.03200
C3146       C  0.87555621  0.03176807  0.65586261    -0.25600
H3147       H  0.85982601  0.95145768  0.62535203     0.08300
H3148       H  0.86108233  0.99747533  0.62043148     0.11900
H3149       H  0.88813773  0.95918605  0.70162015     0.11800
H3150       H  0.89748111  0.00101405  0.71881947     0.11500
H3151       H  0.89797195  0.04664706  0.71480782     0.12100
H3152       H  0.86925473  0.04037591  0.63840938     0.14000
C3153       C  0.79705450  0.11748394  0.63132362    -0.06000
C3154       C  0.79222256  0.13379035  0.61104759    -0.05900
C3155       C  0.76726768  0.13939005  0.60397824    -0.24100
C3156       C  0.74682406  0.12875490  0.61713269     0.18100
C3157       C  0.75162148  0.11039018  0.63582954     0.15400
C3158       C  0.77668202  0.10470758  0.64259131    -0.19100
C3159       C  0.73136633  0.09994001  0.64930741    -0.20900
C3160       C  0.70687786  0.10923869  0.64599718    -0.13500
C3161       C  0.70216573  0.12877418  0.62888454     0.03200
C3162       C  0.72199475  0.13780278  0.61369863    -0.25600
H3163       H  0.80758515  0.14420683  0.60245286     0.08300
H3164       H  0.76399613  0.15341575  0.58951104     0.11900
H3165       H  0.78028251  0.09235750  0.65848498     0.11800
H3166       H  0.73471290  0.08584469  0.66369074     0.11500
H3167       H  0.69191790  0.10253395  0.65822445     0.12100
H3168       H  0.71852488  0.15341017  0.60098617     0.14000
C3169       C  0.86618954  0.20050356  0.63383366    -0.06000
C3170       C  0.88640876  0.21569708  0.64223687    -0.05900
C3171       C  0.88563160  0.24205042  0.63939581    -0.24100
C3172       C  0.86470117  0.25366309  0.62786939     0.18100
C3173       C  0.84523341  0.23824042  0.61764316     0.15400
C3174       C  0.84600092  0.21189114  0.62087405    -0.19100
C3175       C  0.82450626  0.24952289  0.60570958    -0.20900
C3176       C  0.82201998  0.27574617  0.60566539    -0.13500
C3177       C  0.83994981  0.29135869  0.61776759     0.03200
C3178       C  0.86197112  0.28027484  0.62785851    -0.25600
H3179       H  0.90191263  0.20738079  0.65268907     0.08300
H3180       H  0.90084593  0.25341550  0.64726963     0.11900
H3181       H  0.83018834  0.20033270  0.61456042     0.11800
H3182       H  0.80961013  0.23804196  0.59736815     0.11500
H3183       H  0.80532095  0.28387852  0.59718872     0.12100
H3184       H  0.87585523  0.29208125  0.63741166     0.14000
C3185       C  0.68849663  0.11888047  0.96114153    -0.06000
C3186       C  0.71075681  0.11477632  0.97517282    -0.05900
C3187       C  0.71006251  0.11266961  0.00146905    -0.24100
C3188       C  0.68710836  0.11488340  0.01444082     0.18100
C3189       C  0.66456658  0.11939692  0.00077965     0.15400
C3190       C  0.66534460  0.12117568  0.97415017    -0.19100
C3191       C  0.64173706  0.12212319  0.01407296    -0.20900
C3192       C  0.64128526  0.12035762  0.04056089    -0.13500
C3193       C  0.66359020  0.11552189  0.05424071     0.03200
C3194       C  0.68644839  0.11279607  0.04089423    -0.25600
H3195       H  0.72882284  0.11285950  0.96575495     0.08300
H3196       H  0.72753608  0.10931170  0.01167286     0.11900
H3197       H  0.64805682  0.12452612  0.96362935     0.11800
H3198       H  0.62425215  0.12574390  0.00400219     0.11500
H3199       H  0.62347012  0.12272783  0.05033628     0.12100
H3200       H  0.70392000  0.10943601  0.05112188     0.14000
C3201       C  0.67003678  0.95314859  0.87645326    -0.06000
C3202       C  0.64845466  0.96412489  0.88749362    -0.05900
C3203       C  0.64599568  0.99049308  0.88933904    -0.24100
C3204       C  0.66502484  0.00652391  0.88008903     0.18100
C3205       C  0.68654274  0.99564199  0.86853481     0.15400
C3206       C  0.68886930  0.96921485  0.86676266    -0.19100
C3207       C  0.70578678  0.01134565  0.85946158    -0.20900
C3208       C  0.70425777  0.03748208  0.86256796    -0.13500
C3209       C  0.68327549  0.04869292  0.87436336     0.03200
C3210       C  0.66334792  0.03311862  0.88270993    -0.25600
H3211       H  0.63368253  0.95229606  0.89523050     0.08300
H3212       H  0.62936115  0.99832951  0.89833267     0.11900
H3213       H  0.70559616  0.96114884  0.85811530     0.11800
H3214       H  0.72237347  0.00337309  0.85048741     0.11500
H3215       H  0.71979667  0.04908115  0.85600669     0.12100
H3216       H  0.64723818  0.04154379  0.89213555     0.14000
C3217       C  0.64549240  0.13612463  0.80540390    -0.06000
C3218       C  0.62790410  0.15536472  0.80090149    -0.05900
C3219       C  0.62035466  0.16108379  0.77616764    -0.24100
C3220       C  0.63005457  0.14741176  0.75553056     0.18100
C3221       C  0.64627791  0.12673302  0.76000634     0.15400
C3222       C  0.65417644  0.12144265  0.78491160    -0.19100
C3223       C  0.65556477  0.11277296  0.73934856    -0.20900
C3224       C  0.65012126  0.12016220  0.71449856    -0.13500
C3225       C  0.63568445  0.14185100  0.70989735     0.03200
C3226       C  0.62513023  0.15502194  0.73051689    -0.25600
H3227       H  0.62156716  0.16729471  0.81634703     0.08300
H3228       H  0.60784561  0.17694888  0.77310626     0.11900
H3229       H  0.66820195  0.10692581  0.78823597     0.11800
H3230       H  0.66791926  0.09678645  0.74239448     0.11500
H3231       H  0.65878430  0.11005385  0.69890482     0.12100
H3232       H  0.61419121  0.17195349  0.72708129     0.14000
C3233       C  0.64903441  0.20426006  0.89214523    -0.06000
C3234       C  0.66464978  0.21866266  0.90823308    -0.05900
C3235       C  0.66272300  0.24500711  0.90892165    -0.24100
C3236       C  0.64507626  0.25739429  0.89351067     0.18100
C3237       C  0.62768247  0.24292350  0.87902508     0.15400
C3238       C  0.62989254  0.21640821  0.87830146    -0.19100
C3239       C  0.60985913  0.25533849  0.86382248    -0.20900
C3240       C  0.61058535  0.28164562  0.86140050    -0.13500
C3241       C  0.62922400  0.29595514  0.87394955     0.03200
C3242       C  0.64591361  0.28382005  0.89066499    -0.25600
H3243       H  0.67993281  0.20970379  0.91848757     0.08300
H3244       H  0.67611698  0.25574422  0.92026703     0.11900
H3245       H  0.61822765  0.20544219  0.86534145     0.11800
H3246       H  0.59629492  0.24461344  0.85267133     0.11500
H3247       H  0.59795023  0.29060232  0.84802490     0.12100
H3248       H  0.66064168  0.29473300  0.90003148     0.14000
C3249       C  0.74985810  0.11632401  0.81509636    -0.06000
C3250       C  0.73959318  0.12557398  0.79246439    -0.05900
C3251       C  0.75297817  0.12383323  0.76998725    -0.24100
C3252       C  0.77714126  0.11324723  0.76986163     0.18100
C3253       C  0.78715906  0.10238847  0.79214321     0.15400
C3254       C  0.77314067  0.10360455  0.81476510    -0.19100
C3255       C  0.81167793  0.09221647  0.79164953    -0.20900
C3256       C  0.82676439  0.09477760  0.77001374    -0.13500
C3257       C  0.81737089  0.10733218  0.74861709     0.03200
C3258       C  0.79209637  0.11519518  0.74825541    -0.25600
H3259       H  0.72151613  0.13517520  0.79240275     0.08300
H3260       H  0.74501136  0.13205257  0.75301325     0.11900
H3261       H  0.78111911  0.09657203  0.83227037     0.11800
H3262       H  0.81966897  0.08360178  0.80839741     0.11500
H3263       H  0.84621330  0.08843839  0.77060204     0.12100
H3264       H  0.78457978  0.12455473  0.73165736     0.14000
C3265       C  0.87551039  0.33890810  0.94683041    -0.06000
C3266       C  0.87318103  0.36221937  0.95946209    -0.05900
C3267       C  0.87051376  0.36316272  0.98591677    -0.24100
C3268       C  0.86956953  0.34078486  0.00007705     0.18100
C3269       C  0.87122695  0.31734866  0.98724241     0.15400
C3270       C  0.87445161  0.31659391  0.96096056    -0.19100
C3271       C  0.86959637  0.29487798  0.00082288    -0.20900
C3272       C  0.86662117  0.29544002  0.02696577    -0.13500
C3273       C  0.86551714  0.31848107  0.04034975     0.03200
C3274       C  0.86700821  0.34124889  0.02671378    -0.25600
H3275       H  0.87377569  0.37966785  0.94893056     0.08300
H3276       H  0.86910586  0.38136293  0.99527448     0.11900
H3277       H  0.87572299  0.29845679  0.95139345     0.11800
H3278       H  0.87071373  0.27676912  0.99121585     0.11500
H3279       H  0.86573489  0.27760094  0.03680926     0.12100
H3280       H  0.86612183  0.35914501  0.03672953     0.14000
C3281       C  0.95399150  0.33827858  0.86824669    -0.06000
C3282       C  0.96456866  0.36096251  0.87748380    -0.05900
C3283       C  0.99082263  0.36423824  0.87872436    -0.24100
C3284       C  0.00703244  0.34490183  0.87072623     0.18100
C3285       C  0.99652258  0.32235636  0.86060037     0.15400
C3286       C  0.97016863  0.31924854  0.85933012    -0.19100
C3287       C  0.01253486  0.30284739  0.85279561    -0.20900
C3288       C  0.03859208  0.30506480  0.85621373    -0.13500
C3289       C  0.04921044  0.32697963  0.86700619     0.03200
C3290       C  0.03346635  0.34723627  0.87358042    -0.25600
H3291       H  0.95253423  0.37595566  0.88446680     0.08300
H3292       H  0.99843195  0.38165528  0.88651402     0.11900
H3293       H  0.96227757  0.30173701  0.85200360     0.11800
H3294       H  0.00486139  0.28551326  0.84486460     0.11500
H3295       H  0.05054279  0.28930910  0.85095995     0.12100
H3296       H  0.04160883  0.36406409  0.88213732     0.14000
C3297       C  0.81524122  0.26471149  0.88963241    -0.06000
C3298       C  0.79028615  0.27344849  0.88741713    -0.05900
C3299       C  0.76989054  0.25709990  0.89080050    -0.24100
C3300       C  0.77417899  0.23153521  0.89574616     0.18100
C3301       C  0.79920868  0.22285592  0.89952289     0.15400
C3302       C  0.81968167  0.23969233  0.89688822    -0.19100
C3303       C  0.80336948  0.19712851  0.90391782    -0.20900
C3304       C  0.78324543  0.17993888  0.90258755    -0.13500
C3305       C  0.75857732  0.18820998  0.89707716     0.03200
C3306       C  0.75403786  0.21424618  0.89496495    -0.25600
H3307       H  0.78662544  0.29270633  0.88170345     0.08300
H3308       H  0.75085306  0.26410914  0.88796710     0.11900
H3309       H  0.83895156  0.23284734  0.89818191     0.11800
H3310       H  0.82235679  0.19011052  0.90700541     0.11500
H3311       H  0.78726542  0.16000800  0.90444979     0.12100
H3312       H  0.73509187  0.22093723  0.89089536     0.14000
C3313       C  0.87591665  0.19609163  0.73637924    -0.06000
C3314       C  0.87022674  0.22006448  0.72658591    -0.05900
C3315       C  0.87203972  0.24161452  0.74179402    -0.24100
C3316       C  0.87939904  0.23960556  0.76716598     0.18100
C3317       C  0.88633528  0.21579281  0.77691560     0.15400
C3318       C  0.88477733  0.19419198  0.76139018    -0.19100
C3319       C  0.89362428  0.21385441  0.80234100    -0.20900
C3320       C  0.89273557  0.23499060  0.81827239    -0.13500
C3321       C  0.88460308  0.25847784  0.80906505     0.03200
C3322       C  0.87876317  0.26079679  0.78322030    -0.25600
H3323       H  0.86372055  0.22211840  0.70724924     0.08300
H3324       H  0.86688438  0.25973720  0.73392739     0.11900
H3325       H  0.88927393  0.17583487  0.76912976     0.11800
H3326       H  0.89912042  0.19580883  0.81014148     0.11500
H3327       H  0.89732557  0.23264831  0.83810128     0.12100
H3328       H  0.87254108  0.27880192  0.77583425     0.14000
C3329       C  0.87484023  0.36822334  0.79004053    -0.06000
C3330       C  0.86905035  0.39289225  0.78257852    -0.05900
C3331       C  0.86674572  0.39870990  0.75677696    -0.24100
C3332       C  0.86978948  0.37977169  0.73824565     0.18100
C3333       C  0.87751754  0.35539228  0.74578496     0.15400
C3334       C  0.88021039  0.34991190  0.77154972    -0.19100
C3335       C  0.88009210  0.33617219  0.72767119    -0.20900
C3336       C  0.87271103  0.34031575  0.70271388    -0.13500
C3337       C  0.86311216  0.36381202  0.69531865     0.03200
C3338       C  0.86293148  0.38396533  0.71278404    -0.25600
H3339       H  0.86450935  0.40711084  0.79665117     0.08300
H3340       H  0.86093096  0.41752454  0.75142832     0.11900
H3341       H  0.88434765  0.33074825  0.77734266     0.11800
H3342       H  0.88603624  0.31742241  0.73315641     0.11500
H3343       H  0.87264298  0.32454525  0.68953102     0.12100
H3344       H  0.85497297  0.40194586  0.70726260     0.14000
C3345       C  0.79820082  0.36660381  0.87897828    -0.06000
C3346       C  0.78597973  0.35170486  0.89711183    -0.05900
C3347       C  0.76017240  0.35444675  0.90153039    -0.24100
C3348       C  0.74618590  0.37171605  0.88732219     0.18100
C3349       C  0.75891981  0.38864934  0.87099784     0.15400
C3350       C  0.78513618  0.38634452  0.86735527    -0.19100
C3351       C  0.74480711  0.40526779  0.85611012    -0.20900
C3352       C  0.71856430  0.40266445  0.85474748    -0.13500
C3353       C  0.70613267  0.38400659  0.86881809     0.03200
C3354       C  0.71969829  0.36998014  0.88658132    -0.25600
H3355       H  0.79601165  0.33643113  0.90624696     0.08300
H3356       H  0.75082585  0.34147382  0.91424156     0.11900
H3357       H  0.79456639  0.39759804  0.85312893     0.11800
H3358       H  0.75414802  0.41846391  0.84362853     0.11500
H3359       H  0.70823645  0.41342270  0.84075082     0.12100
H3360       H  0.71012429  0.35522006  0.89700970     0.14000
loop_ 
_geom_bond_atom_site_label_1 
_geom_bond_atom_site_label_2 
_geom_bond_distance 
_geom_bond_site_symmetry_2 
_ccdc_geom_bond_type 
O1           C16   1.262       .  A
O1           Al9   1.922       .  S
C2           O12   1.261       .  A
C2            O3   1.258       .  A
C2         C3297   1.469       .  S
O3           Al5   1.892       .  S
O4            C6   1.255       .  A
O4           Al5   1.862       .  S
Al5          O13   1.894       .  S
Al5          O15   1.895       .  S
Al5          O14   1.777       .  S
C6           O19   1.264       .  A
C6         C3345   1.463       .  S
O7           C17   1.262       .  A
O7           Al9   1.909       .  S
O8           C21   1.264       .  A
O8          Al18   1.901       .  S
Al9          O22   1.915       .  S
Al9          O19   1.937       .  S
Al9          O14   1.795       .  S
O10          C17   1.263       .  A
O10         Al18   1.907       .  S
O11          C20   1.265       .  A
O11         Al18   1.922       .  S
O12         Al18   1.917       .  S
O13          C20   1.262       .  A
O14         Al18   1.782       .  S
O15          C16   1.258       .  A
C16        C3329   1.472       .  S
C17        C3265   1.482       .  S
C20        C3321   1.481       .  S
C21          O22   1.264       .  A
C21        C3281   1.482       .  S
O23          C38   1.263       .  A
O23         Al31   1.933       .  S
C24          O34   1.259       .  A
C24          O25   1.257       .  A
C24        C3249   1.467       .  S
O25         Al27   1.891       .  S
O26          C28   1.258       .  A
O26         Al27   1.878       .  S
Al27         O35   1.894       .  S
Al27         O37   1.901       .  S
Al27         O36   1.778       .  S
C28          O41   1.274       .  A
C28        C3217   1.476       .  S
O29          C39   1.267       .  A
O29         Al31   1.933       .  S
O30          C43   1.263       .  A
O30         Al40   1.890       .  S
Al31         O44   1.936       .  S
Al31         O41   1.969       .  S
Al31         O36   1.786       .  S
O32          C39   1.262       .  A
O32         Al40   1.902       .  S
O33          C42   1.269       .  A
O33         Al40   1.936       .  S
O34         Al40   1.915       .  S
O35          C42   1.263       .  A
O36         Al40   1.782       .  S
O37          C38   1.255       .  A
C38        C3233   1.474       .  S
C39        C3209   1.486       .  S
C42        C3305   1.483       .  S
C43          O44   1.268       .  A
C43        C3185   1.488       .  S
O45          C60   1.274       .  A
O45         Al53   1.976       .  S
C46          O56   1.270       .  A
C46          O47   1.260       .  A
C46        C3313   1.479       .  S
O47         Al49   1.876       .  S
O48          C50   1.263       .  A
O48         Al49   1.925       .  S
Al49         O57   1.898       .  S
Al49         O59   1.875       .  S
Al49         O58   1.769       .  S
C50          O63   1.268       .  A
C50        C3169   1.484       .  S
O51          C61   1.267       .  A
O51         Al53   1.953       .  S
O52          C65   1.270       .  A
O52         Al62   1.925       .  S
Al53         O66   1.934       .  S
Al53         O63   1.938       .  S
Al53         O58   1.784       .  S
O54          C61   1.256       .  A
O54         Al62   1.872       .  S
O55          C64   1.257       .  A
O55         Al62   1.902       .  S
O56         Al62   1.943       .  S
O57          C64   1.259       .  A
O58         Al62   1.773       .  S
O59          C60   1.257       .  A
C60        C3153   1.477       .  S
C61        C3121   1.489       .  S
C64        C3257   1.475       .  S
C65          O66   1.271       .  A
C65        C3145   1.500       .  S
O67          C82   1.262       .  A
O67         Al75   1.929       .  S
C68          O78   1.260       .  A
C68          O69   1.256       .  A
C68        C3105   1.470       .  S
O69         Al71   1.890       .  S
O70          C72   1.256       .  A
O70         Al71   1.861       .  S
Al71         O79   1.884       .  S
Al71         O81   1.914       .  S
Al71         O80   1.776       .  S
C72          O85   1.268       .  A
C72        C3353   1.462       .  S
O73          C83   1.264       .  A
O73         Al75   1.909       .  S
O74          C87   1.264       .  A
O74         Al84   1.909       .  S
Al75         O88   1.913       .  S
Al75         O85   1.949       .  S
Al75         O80   1.783       .  S
O76          C83   1.267       .  A
O76         Al84   1.925       .  S
O77          C86   1.272       .  A
O77         Al84   1.951       .  S
O78         Al84   1.917       .  S
O79          C86   1.263       .  A
O80         Al84   1.781       .  S
O81          C82   1.258       .  A
C82        C3241   1.477       .  S
C83        C3057   1.493       .  S
C86        C3089   1.486       .  S
C87          O88   1.263       .  A
C87        C3073   1.489       .  S
O89         C104   1.262       .  A
O89         Al97   1.925       .  S
C90         O100   1.258       .  A
C90          O91   1.260       .  A
C90        C3041   1.456       .  S
O91         Al93   1.898       .  S
O92          C94   1.258       .  A
O92         Al93   1.877       .  S
Al93        O101   1.901       .  S
Al93        O103   1.892       .  S
Al93        O102   1.771       .  S
C94         O107   1.273       .  A
C94        C3177   1.487       .  S
O95         C105   1.262       .  A
O95         Al97   1.916       .  S
O96         C109   1.261       .  A
O96        Al106   1.873       .  S
Al97        O110   1.960       .  S
Al97        O107   1.975       .  S
Al97        O102   1.787       .  S
O98         C105   1.260       .  A
O98        Al106   1.899       .  S
O99         C108   1.264       .  A
O99        Al106   1.922       .  S
O100       Al106   1.896       .  S
O101        C108   1.263       .  A
O102       Al106   1.783       .  S
O103        C104   1.258       .  A
C104       C3337   1.470       .  S
C105       C3025   1.479       .  S
C108       C3113   1.481       .  S
C109        O110   1.274       .  A
C109       C3017   1.490       .  S
O111        C126   1.263       .  A
O111       Al119   1.923       .  S
C112        O122   1.260       .  A
C112        O113   1.260       .  A
C112       C3097   1.476       .  S
O113       Al115   1.903       .  S
O114        C116   1.257       .  A
O114       Al115   1.883       .  S
Al115       O123   1.884       .  S
Al115       O125   1.903       .  S
Al115       O124   1.774       .  S
C116        O129   1.271       .  A
C116       C3225   1.479       .  S
O117        C127   1.264       .  A
O117       Al119   1.917       .  S
O118        C131   1.261       .  A
O118       Al128   1.895       .  S
Al119       O132   1.949       .  S
Al119       O129   1.961       .  S
Al119       O124   1.789       .  S
O120        C127   1.260       .  A
O120       Al128   1.889       .  S
O121        C130   1.261       .  A
O121       Al128   1.904       .  S
O122       Al128   1.913       .  S
O123        C130   1.259       .  A
O124       Al128   1.785       .  S
O125        C126   1.259       .  A
C126       C3161   1.471       .  S
C127       C2985   1.473       .  S
C130       C3049   1.468       .  S
C131        O132   1.269       .  A
C131       C2993   1.497       .  S
O133        C148   1.259       .  A
O133       Al141   1.919       .  S
C134        O144   1.259       .  A
C134        O135   1.256       .  A
C134       C2969   1.475       .  S
O135       Al137   1.901       .  S
O136        C138   1.260       .  A
O136       Al137   1.874       .  S
Al137       O145   1.886       .  S
Al137       O147   1.910       .  S
Al137       O146   1.775       .  S
C138        O151   1.273       .  A
C138       C2929   1.470       .  S
O139        C149   1.261       .  A
O139       Al141   1.897       .  S
O140        C153   1.258       .  A
O140       Al150   1.883       .  S
Al141       O154   1.935       .  S
Al141       O151   1.960       .  S
Al141       O146   1.791       .  S
O142        C149   1.267       .  A
O142       Al150   1.918       .  S
O143        C152   1.270       .  A
O143       Al150   1.937       .  S
O144       Al150   1.919       .  S
O145        C152   1.264       .  A
O146       Al150   1.781       .  S
O147        C148   1.257       .  A
C148       C2913   1.471       .  S
C149       C2897   1.485       .  S
C152       C2945   1.477       .  S
C153        O154   1.265       .  A
C153       C3129   1.487       .  S
O155        C170   1.261       .  A
O155       Al163   1.927       .  S
C156        O166   1.260       .  A
C156        O157   1.258       .  A
C156       C2857   1.465       .  S
O157       Al159   1.888       .  S
O158        C160   1.257       .  A
O158       Al159   1.866       .  S
Al159       O167   1.885       .  S
Al159       O169   1.907       .  S
Al159       O168   1.773       .  S
C160        O173   1.274       .  A
C160       C2873   1.474       .  S
O161        C171   1.264       .  A
O161       Al163   1.913       .  S
O162        C175   1.262       .  A
O162       Al172   1.884       .  S
Al163       O176   1.938       .  S
Al163       O173   1.973       .  S
Al163       O168   1.783       .  S
O164        C171   1.266       .  A
O164       Al172   1.925       .  S
O165        C174   1.272       .  A
O165       Al172   1.960       .  S
O166       Al172   1.913       .  S
O167        C174   1.263       .  A
O168       Al172   1.782       .  S
O169        C170   1.256       .  A
C170       C2881   1.475       .  S
C171       C2817   1.494       .  S
C174       C2961   1.488       .  S
C175        O176   1.268       .  A
C175       C2841   1.487       .  S
O177        C192   1.267       .  A
O177       Al185   1.932       .  S
C178        O188   1.256       .  A
C178        O179   1.258       .  A
C178       C2953   1.467       .  S
O179       Al181   1.893       .  S
O180        C182   1.257       .  A
O180       Al181   1.888       .  S
Al181       O189   1.887       .  S
Al181       O191   1.917       .  S
Al181       O190   1.773       .  S
C182        O195   1.267       .  A
C182       C2801   1.481       .  S
O183        C193   1.268       .  A
O183       Al185   1.920       .  S
O184        C197   1.257       .  A
O184       Al194   1.882       .  S
Al185       O198   1.936       .  S
Al185       O195   1.951       .  S
Al185       O190   1.791       .  S
O186        C193   1.264       .  A
O186       Al194   1.899       .  S
O187        C196   1.262       .  A
O187       Al194   1.911       .  S
O188       Al194   1.900       .  S
O189        C196   1.261       .  A
O190       Al194   1.784       .  S
O191        C192   1.263       .  A
C192       C2785   1.479       .  S
C193       C3289   1.471       .  S
C196       C2849   1.476       .  S
C197        O198   1.264       .  A
C197       C2769   1.487       .  S
O199        C214   1.264       .  A
O199       Al207   1.935       .  S
C200        O210   1.258       .  A
C200        O201   1.258       .  A
C200       C2753   1.464       .  S
O201       Al203   1.897       .  S
O202        C204   1.258       .  A
O202       Al203   1.870       .  S
Al203       O211   1.906       .  S
Al203       O213   1.905       .  S
Al203       O212   1.779       .  S
C204        O217   1.273       .  A
C204       C2865   1.483       .  S
O205        C215   1.265       .  A
O205       Al207   1.931       .  S
O206        C219   1.259       .  A
O206       Al216   1.871       .  S
Al207       O220   1.957       .  S
Al207       O217   1.972       .  S
Al207       O212   1.791       .  S
O208        C215   1.258       .  A
O208       Al216   1.889       .  S
O209        C218   1.262       .  A
O209       Al216   1.906       .  S
O210       Al216   1.903       .  S
O211        C218   1.265       .  A
O212       Al216   1.782       .  S
O213        C214   1.257       .  A
C214       C2793   1.480       .  S
C215       C3081   1.483       .  S
C218       C2737   1.479       .  S
C219        O220   1.270       .  A
C219       C2721   1.493       .  S
O221        C236   1.263       .  A
O221       Al229   1.930       .  S
C222        O232   1.262       .  A
C222        O223   1.254       .  A
C222       C2745   1.471       .  S
O223       Al225   1.881       .  S
O224        C226   1.257       .  A
O224       Al225   1.874       .  S
Al225       O233   1.884       .  S
Al225       O235   1.895       .  S
Al225       O234   1.773       .  S
C226        O239   1.275       .  A
C226       C2809   1.473       .  S
O227        C237   1.268       .  A
O227       Al229   1.932       .  S
O228        C241   1.264       .  A
O228       Al238   1.899       .  S
Al229       O242   1.948       .  S
Al229       O239   1.975       .  S
Al229       O234   1.785       .  S
O230        C237   1.265       .  A
O230       Al238   1.906       .  S
O231        C240   1.270       .  A
O231       Al238   1.943       .  S
O232       Al238   1.928       .  S
O233        C240   1.263       .  A
O234       Al238   1.776       .  S
O235        C236   1.255       .  A
C236       C2921   1.467       .  S
C237       C2673   1.495       .  S
C240       C2705   1.482       .  S
C241        O242   1.270       .  A
C241       C2697   1.498       .  S
O243        C258   1.259       .  A
O243       Al251   1.922       .  S
C244        O254   1.260       .  A
C244        O245   1.257       .  A
C244       C2713   1.470       .  S
O245       Al247   1.894       .  S
O246        C248   1.256       .  A
O246       Al247   1.861       .  S
Al247       O255   1.875       .  S
Al247       O257   1.915       .  S
Al247       O256   1.773       .  S
C248        O261   1.272       .  A
C248       C2937   1.467       .  S
O249        C259   1.265       .  A
O249       Al251   1.906       .  S
O250        C263   1.260       .  A
O250       Al260   1.889       .  S
Al251       O264   1.916       .  S
Al251       O261   1.962       .  S
Al251       O256   1.786       .  S
O252        C259   1.269       .  A
O252       Al260   1.929       .  S
O253        C262   1.270       .  A
O253       Al260   1.944       .  S
O254       Al260   1.912       .  S
O255        C262   1.261       .  A
O256       Al260   1.781       .  S
O257        C258   1.257       .  A
C258       C2889   1.473       .  S
C259       C2665   1.492       .  S
C262       C2761   1.478       .  S
C263        O264   1.263       .  A
C263       C2977   1.482       .  S
O265        C280   1.261       .  A
O265       Al273   1.922       .  S
C266        O276   1.260       .  A
C266        O267   1.254       .  A
C266       C2617   1.478       .  S
O267       Al269   1.887       .  S
O268        C270   1.257       .  A
O268       Al269   1.875       .  S
Al269       O277   1.879       .  S
Al269       O279   1.917       .  S
Al269       O278   1.778       .  S
C270        O283   1.273       .  A
C270       C2649   1.472       .  S
O271        C281   1.266       .  A
O271       Al273   1.910       .  S
O272        C285   1.261       .  A
O272       Al282   1.907       .  S
Al273       O286   1.922       .  S
Al273       O283   1.970       .  S
Al273       O278   1.790       .  S
O274        C281   1.267       .  A
O274       Al282   1.909       .  S
O275        C284   1.270       .  A
O275       Al282   1.936       .  S
O276       Al282   1.928       .  S
O277        C284   1.263       .  A
O278       Al282   1.784       .  S
O279        C280   1.258       .  A
C280       C2625   1.475       .  S
C281       C2833   1.480       .  S
C284       C2601   1.479       .  S
C285        O286   1.262       .  A
C285       C2585   1.494       .  S
O287        C302   1.263       .  A
O287       Al295   1.941       .  S
C288        O298   1.258       .  A
C288        O289   1.258       .  A
C288       C2593   1.471       .  S
O289       Al291   1.898       .  S
O290        C292   1.257       .  A
O290       Al291   1.863       .  S
Al291       O299   1.884       .  S
Al291       O301   1.905       .  S
Al291       O300   1.776       .  S
C292        O305   1.279       .  A
C292       C2545   1.481       .  S
O293        C303   1.267       .  A
O293       Al295   1.925       .  S
O294        C307   1.256       .  A
O294       Al304   1.866       .  S
Al295       O308   1.966       .  S
Al295       O305   1.991       .  S
Al295       O300   1.787       .  S
O296        C303   1.261       .  A
O296       Al304   1.893       .  S
O297        C306   1.266       .  A
O297       Al304   1.913       .  S
O298       Al304   1.909       .  S
O299        C306   1.262       .  A
O300       Al304   1.777       .  S
O301        C302   1.257       .  A
C302       C2529   1.482       .  S
C303       C2497   1.488       .  S
C306       C2561   1.470       .  S
C307        O308   1.271       .  A
C307       C2521   1.496       .  S
O309        C324   1.259       .  A
O309       Al317   1.915       .  S
C310        O320   1.258       .  A
C310        O311   1.262       .  A
C310       C2569   1.459       .  S
O311       Al313   1.897       .  S
O312        C314   1.255       .  A
O312       Al313   1.866       .  S
Al313       O321   1.906       .  S
Al313       O323   1.890       .  S
Al313       O322   1.779       .  S
C314        O327   1.272       .  A
C314       C2465   1.480       .  S
O315        C325   1.260       .  A
O315       Al317   1.919       .  S
O316        C329   1.260       .  A
O316       Al326   1.860       .  S
Al317       O330   1.968       .  S
Al317       O327   1.967       .  S
Al317       O322   1.796       .  S
O318        C325   1.258       .  A
O318       Al326   1.898       .  S
O319        C328   1.263       .  A
O319       Al326   1.929       .  S
O320       Al326   1.891       .  S
O321        C328   1.261       .  A
O322       Al326   1.785       .  S
O323        C324   1.256       .  A
C324       C2489   1.470       .  S
C325       C2449   1.483       .  S
C328       C2609   1.488       .  S
C329        O330   1.275       .  A
C329       C2905   1.486       .  S
O331        C346   1.260       .  A
O331       Al339   1.927       .  S
C332        O342   1.261       .  A
C332        O333   1.258       .  A
C332       C2425   1.465       .  S
O333       Al335   1.889       .  S
O334        C336   1.257       .  A
O334       Al335   1.866       .  S
Al335       O343   1.909       .  S
Al335       O345   1.897       .  S
Al335       O344   1.783       .  S
C336        O349   1.275       .  A
C336       C2553   1.480       .  S
O337        C347   1.265       .  A
O337       Al339   1.935       .  S
O338        C351   1.262       .  A
O338       Al348   1.883       .  S
Al339       O352   1.949       .  S
Al339       O349   1.975       .  S
Al339       O344   1.789       .  S
O340        C347   1.260       .  A
O340       Al348   1.889       .  S
O341        C350   1.265       .  A
O341       Al348   1.916       .  S
O342       Al348   1.912       .  S
O343        C350   1.265       .  A
O344       Al348   1.777       .  S
O345        C346   1.253       .  A
C346       C2633   1.472       .  S
C347       C2729   1.490       .  S
C350       C2433   1.483       .  S
C351        O352   1.270       .  A
C351       C2401   1.492       .  S
O353        C368   1.260       .  A
O353       Al361   1.928       .  S
C354        O364   1.261       .  A
C354        O355   1.253       .  A
C354       C2441   1.471       .  S
O355       Al357   1.879       .  S
O356        C358   1.258       .  A
O356       Al357   1.876       .  S
Al357       O365   1.893       .  S
Al357       O367   1.893       .  S
Al357       O366   1.779       .  S
C358        O371   1.271       .  A
C358       C2641   1.474       .  S
O359        C369   1.263       .  A
O359       Al361   1.906       .  S
O360        C373   1.264       .  A
O360       Al370   1.909       .  S
Al361       O374   1.922       .  S
Al361       O371   1.960       .  S
Al361       O366   1.788       .  S
O362        C369   1.266       .  A
O362       Al370   1.927       .  S
O363        C372   1.272       .  A
O363       Al370   1.947       .  S
O364       Al370   1.926       .  S
O365        C372   1.265       .  A
O366       Al370   1.787       .  S
O367        C368   1.255       .  A
C368       C2481   1.470       .  S
C369       C2361   1.495       .  S
C372       C2385   1.488       .  S
C373        O374   1.265       .  A
C373       C2369   1.493       .  S
O375        C390   1.259       .  A
O375       Al383   1.936       .  S
C376        O386   1.260       .  A
C376        O377   1.254       .  A
C376       C2393   1.475       .  S
O377       Al379   1.889       .  S
O378        C380   1.259       .  A
O378       Al379   1.868       .  S
Al379       O387   1.885       .  S
Al379       O389   1.890       .  S
Al379       O388   1.784       .  S
C380        O393   1.276       .  A
C380       C2473   1.478       .  S
O381        C391   1.263       .  A
O381       Al383   1.919       .  S
O382        C395   1.261       .  A
O382       Al392   1.892       .  S
Al383       O396   1.940       .  S
Al383       O393   1.974       .  S
Al383       O388   1.793       .  S
O384        C391   1.260       .  A
O384       Al392   1.895       .  S
O385        C394   1.267       .  A
O385       Al392   1.924       .  S
O386       Al392   1.924       .  S
O387        C394   1.263       .  A
O388       Al392   1.788       .  S
O389        C390   1.251       .  A
C390       C2537   1.478       .  S
C391       C2337   1.488       .  S
C394       C2417   1.475       .  S
C395        O396   1.268       .  A
C395       C2681   1.496       .  S
O397        C412   1.261       .  A
O397       Al405   1.924       .  S
C398        O408   1.262       .  A
C398        O399   1.256       .  A
C398       C2321   1.472       .  S
O399       Al401   1.890       .  S
O400        C402   1.257       .  A
O400       Al401   1.877       .  S
Al401       O409   1.878       .  S
Al401       O411   1.917       .  S
Al401       O410   1.776       .  S
C402        O415   1.274       .  A
C402       C2305   1.476       .  S
O403        C413   1.269       .  A
O403       Al405   1.920       .  S
O404        C417   1.262       .  A
O404       Al414   1.898       .  S
Al405       O418   1.927       .  S
Al405       O415   1.971       .  S
Al405       O410   1.783       .  S
O406        C413   1.269       .  A
O406       Al414   1.929       .  S
O407        C416   1.271       .  A
O407       Al414   1.952       .  S
O408       Al414   1.925       .  S
O409        C416   1.261       .  A
O410       Al414   1.781       .  S
O411        C412   1.258       .  A
C412       C2281   1.474       .  S
C413       C3137   1.499       .  S
C416       C2289   1.485       .  S
C417        O418   1.265       .  A
C417       C2457   1.490       .  S
O419        C434   1.257       .  A
O419       Al427   1.915       .  S
C420        O430   1.260       .  A
C420        O421   1.257       .  A
C420       C2297   1.471       .  S
O421       Al423   1.893       .  S
O422        C424   1.258       .  A
O422       Al423   1.870       .  S
Al423       O431   1.897       .  S
Al423       O433   1.906       .  S
Al423       O432   1.781       .  S
C424        O437   1.274       .  A
C424       C2225   1.482       .  S
O425        C435   1.262       .  A
O425       Al427   1.910       .  S
O426        C439   1.263       .  A
O426       Al436   1.893       .  S
Al427       O440   1.935       .  S
Al427       O437   1.970       .  S
Al427       O432   1.793       .  S
O428        C435   1.263       .  A
O428       Al436   1.913       .  S
O429        C438   1.269       .  A
O429       Al436   1.940       .  S
O430       Al436   1.919       .  S
O431        C438   1.264       .  A
O432       Al436   1.786       .  S
O433        C434   1.255       .  A
C434       C2241   1.471       .  S
C435       C2513   1.484       .  S
C438       C2257   1.485       .  S
C439        O440   1.267       .  A
C439       C2209   1.492       .  S
O441        C456   1.263       .  A
O441       Al449   1.925       .  S
C442        O452   1.263       .  A
C442        O443   1.259       .  A
C442       C2265   1.472       .  S
O443       Al445   1.895       .  S
O444        C446   1.257       .  A
O444       Al445   1.884       .  S
Al445       O453   1.907       .  S
Al445       O455   1.890       .  S
Al445       O454   1.779       .  S
C446        O459   1.267       .  A
C446       C2193   1.477       .  S
O447        C457   1.262       .  A
O447       Al449   1.922       .  S
O448        C461   1.265       .  A
O448       Al458   1.904       .  S
Al449       O462   1.946       .  S
Al449       O459   1.946       .  S
Al449       O454   1.798       .  S
O450        C457   1.259       .  A
O450       Al458   1.892       .  S
O451        C460   1.261       .  A
O451       Al458   1.912       .  S
O452       Al458   1.922       .  S
O453        C460   1.262       .  A
O454       Al458   1.788       .  S
O455        C456   1.257       .  A
C456       C2177   1.471       .  S
C457       C2161   1.480       .  S
C460       C2329   1.484       .  S
C461        O462   1.271       .  A
C461       C3201   1.495       .  S
O463        C478   1.262       .  A
O463       Al471   1.934       .  S
C464        O474   1.257       .  A
C464        O465   1.255       .  A
C464       C2145   1.464       .  S
O465       Al467   1.889       .  S
O466        C468   1.256       .  A
O466       Al467   1.861       .  S
Al467       O475   1.890       .  S
Al467       O477   1.904       .  S
Al467       O476   1.778       .  S
C468        O481   1.277       .  A
C468       C2233   1.473       .  S
O469        C479   1.266       .  A
O469       Al471   1.924       .  S
O470        C483   1.259       .  A
O470       Al480   1.879       .  S
Al471       O484   1.940       .  S
Al471       O481   1.982       .  S
Al471       O476   1.784       .  S
O472        C479   1.264       .  A
O472       Al480   1.901       .  S
O473        C482   1.270       .  A
O473       Al480   1.934       .  S
O474       Al480   1.905       .  S
O475        C482   1.264       .  A
O476       Al480   1.774       .  S
O477        C478   1.254       .  A
C478       C2273   1.473       .  S
C479       C3009   1.485       .  S
C482       C2129   1.480       .  S
C483        O484   1.267       .  A
C483       C2113   1.484       .  S
O485        C500   1.262       .  A
O485       Al493   1.929       .  S
C486        O496   1.257       .  A
C486        O487   1.254       .  A
C486       C2097   1.460       .  S
O487       Al489   1.883       .  S
O488        C490   1.257       .  A
O488       Al489   1.872       .  S
Al489       O497   1.883       .  S
Al489       O499   1.904       .  S
Al489       O498   1.775       .  S
C490        O503   1.274       .  A
C490       C2201   1.475       .  S
O491        C501   1.267       .  A
O491       Al493   1.925       .  S
O492        C505   1.259       .  A
O492       Al502   1.886       .  S
Al493       O506   1.945       .  S
Al493       O503   1.973       .  S
Al493       O498   1.785       .  S
O494        C501   1.263       .  A
O494       Al502   1.901       .  S
O495        C504   1.267       .  A
O495       Al502   1.927       .  S
O496       Al502   1.909       .  S
O497        C504   1.263       .  A
O498       Al502   1.781       .  S
O499        C500   1.256       .  A
C500       C2249   1.471       .  S
C501       C2409   1.487       .  S
C504       C2153   1.476       .  S
C505        O506   1.268       .  A
C505       C3065   1.492       .  S
O507        C522   1.259       .  A
O507       Al515   1.923       .  S
C508        O518   1.256       .  A
C508        O509   1.255       .  A
C508       C2137   1.468       .  S
O509       Al511   1.896       .  S
O510        C512   1.260       .  A
O510       Al511   1.875       .  S
Al511       O519   1.895       .  S
Al511       O521   1.898       .  S
Al511       O520   1.781       .  S
C512        O525   1.276       .  A
C512       C2313   1.479       .  S
O513        C523   1.259       .  A
O513       Al515   1.904       .  S
O514        C527   1.258       .  A
O514       Al524   1.876       .  S
Al515       O528   1.956       .  S
Al515       O525   1.971       .  S
Al515       O520   1.796       .  S
O516        C523   1.259       .  A
O516       Al524   1.887       .  S
O517        C526   1.267       .  A
O517       Al524   1.917       .  S
O518       Al524   1.906       .  S
O519        C526   1.266       .  A
O520       Al524   1.785       .  S
O521        C522   1.255       .  A
C522       C2185   1.472       .  S
C523       C2081   1.474       .  S
C526       C2105   1.475       .  S
C527        O528   1.270       .  A
C527       C2353   1.497       .  S
O529        C544   1.266       .  A
O529       Al537   1.945       .  S
C530        O540   1.256       .  A
C530        O531   1.257       .  A
C530       C2041   1.468       .  S
O531       Al533   1.895       .  S
O532        C534   1.256       .  A
O532       Al533   1.865       .  S
Al533       O541   1.875       .  S
Al533       O543   1.906       .  S
Al533       O542   1.773       .  S
C534        O547   1.275       .  A
C534       C2049   1.471       .  S
O535        C545   1.267       .  A
O535       Al537   1.926       .  S
O536        C549   1.259       .  A
O536       Al546   1.876       .  S
Al537       O550   1.948       .  S
Al537       O547   1.974       .  S
Al537       O542   1.784       .  S
O538        C545   1.266       .  A
O538       Al546   1.914       .  S
O539        C548   1.271       .  A
O539       Al546   1.948       .  S
O540       Al546   1.900       .  S
O541        C548   1.261       .  A
O542       Al546   1.776       .  S
O543        C544   1.257       .  A
C544       C2065   1.479       .  S
C545       C2001   1.491       .  S
C548       C2025   1.480       .  S
C549        O550   1.268       .  A
C549       C3273   1.488       .  S
O551        C566   1.259       .  A
O551       Al559   1.918       .  S
C552        O562   1.262       .  A
C552        O553   1.261       .  A
C552       C1961   1.466       .  S
O553       Al555   1.899       .  S
O554        C556   1.256       .  A
O554       Al555   1.862       .  S
Al555       O563   1.898       .  S
Al555       O565   1.888       .  S
Al555       O564   1.780       .  S
C556        O569   1.270       .  A
C556       C2057   1.475       .  S
O557        C567   1.260       .  A
O557       Al559   1.923       .  S
O558        C571   1.262       .  A
O558       Al568   1.875       .  S
Al559       O572   1.947       .  S
Al559       O569   1.957       .  S
Al559       O564   1.796       .  S
O560        C567   1.255       .  A
O560       Al568   1.883       .  S
O561        C570   1.259       .  A
O561       Al568   1.905       .  S
O562       Al568   1.907       .  S
O563        C570   1.260       .  A
O564       Al568   1.788       .  S
O565        C566   1.254       .  A
C566       C1969   1.470       .  S
C567       C1937   1.481       .  S
C570       C1985   1.474       .  S
C571        O572   1.272       .  A
C571       C3033   1.485       .  S
O573        C588   1.264       .  A
O573       Al581   1.926       .  S
C574        O584   1.259       .  A
C574        O575   1.257       .  A
C574       C1905   1.469       .  S
O575       Al577   1.887       .  S
O576        C578   1.256       .  A
O576       Al577   1.877       .  S
Al577       O585   1.885       .  S
Al577       O587   1.906       .  S
Al577       O586   1.770       .  S
C578        O591   1.272       .  A
C578       C1929   1.475       .  S
O579        C589   1.267       .  A
O579       Al581   1.918       .  S
O580        C593   1.259       .  A
O580       Al590   1.881       .  S
Al581       O594   1.945       .  S
Al581       O591   1.968       .  S
Al581       O586   1.785       .  S
O582        C589   1.265       .  A
O582       Al590   1.904       .  S
O583        C592   1.266       .  A
O583       Al590   1.920       .  S
O584       Al590   1.910       .  S
O585        C592   1.262       .  A
O586       Al590   1.778       .  S
O587        C588   1.259       .  A
C588       C1977   1.469       .  S
C589       C1889   1.486       .  S
C592       C2033   1.475       .  S
C593        O594   1.267       .  A
C593       C1873   1.488       .  S
O595        C610   1.267       .  A
O595       Al603   1.934       .  S
C596        O606   1.256       .  A
C596        O597   1.258       .  A
C596       C2017   1.473       .  S
O597       Al599   1.900       .  S
O598        C600   1.257       .  A
O598       Al599   1.883       .  S
Al599       O607   1.887       .  S
Al599       O609   1.914       .  S
Al599       O608   1.771       .  S
C600        O613   1.270       .  A
C600       C1857   1.471       .  S
O601        C611   1.268       .  A
O601       Al603   1.915       .  S
O602        C615   1.257       .  A
O602       Al612   1.879       .  S
Al603       O616   1.950       .  S
Al603       O613   1.962       .  S
Al603       O608   1.788       .  S
O604        C611   1.266       .  A
O604       Al612   1.913       .  S
O605        C614   1.266       .  A
O605       Al612   1.923       .  S
O606       Al612   1.898       .  S
O607        C614   1.262       .  A
O608       Al612   1.778       .  S
O609        C610   1.263       .  A
C610       C1841   1.478       .  S
C611       C3193   1.487       .  S
C614       C1913   1.477       .  S
C615        O616   1.267       .  A
C615       C1833   1.491       .  S
O617        C632   1.265       .  A
O617       Al625   1.939       .  S
C618        O628   1.261       .  A
C618        O619   1.257       .  A
C618       C1809   1.483       .  S
O619       Al621   1.894       .  S
O620        C622   1.258       .  A
O620       Al621   1.882       .  S
Al621       O629   1.890       .  S
Al621       O631   1.910       .  S
Al621       O630   1.777       .  S
C622        O635   1.268       .  A
C622       C1865   1.475       .  S
O623        C633   1.269       .  A
O623       Al625   1.933       .  S
O624        C637   1.261       .  A
O624       Al634   1.898       .  S
Al625       O638   1.918       .  S
Al625       O635   1.950       .  S
Al625       O630   1.792       .  S
O626        C633   1.264       .  A
O626       Al634   1.899       .  S
O627        C636   1.265       .  A
O627       Al634   1.916       .  S
O628       Al634   1.924       .  S
O629        C636   1.262       .  A
O630       Al634   1.784       .  S
O631        C632   1.259       .  A
C632       C2073   1.481       .  S
C633       C1793   1.492       .  S
C636       C1953   1.477       .  S
C637        O638   1.262       .  A
C637       C1777   1.486       .  S
O639        C654   1.263       .  A
O639       Al647   1.926       .  S
C640        O650   1.259       .  A
C640        O641   1.257       .  A
C640       C1993   1.461       .  S
O641       Al643   1.885       .  S
O642        C644   1.255       .  A
O642       Al643   1.878       .  S
Al643       O651   1.889       .  S
Al643       O653   1.900       .  S
Al643       O652   1.774       .  S
C644        O657   1.268       .  A
C644       C1921   1.474       .  S
O645        C655   1.268       .  A
O645       Al647   1.929       .  S
O646        C659   1.264       .  A
O646       Al656   1.897       .  S
Al647       O660   1.923       .  S
Al647       O657   1.956       .  S
Al647       O652   1.791       .  S
O648        C655   1.266       .  A
O648       Al656   1.915       .  S
O649        C658   1.267       .  A
O649       Al656   1.949       .  S
O650       Al656   1.902       .  S
O651        C658   1.260       .  A
O652       Al656   1.784       .  S
O653        C654   1.259       .  A
C654       C1849   1.471       .  S
C655       C3001   1.488       .  S
C658       C1817   1.492       .  S
C659        O660   1.265       .  A
C659       C1761   1.484       .  S
O661        C676   1.264       .  A
O661       Al669   1.931       .  S
C662        O672   1.260       .  A
C662        O663   1.257       .  A
C662       C1697   1.475       .  S
O663       Al665   1.890       .  S
O664        C666   1.256       .  A
O664       Al665   1.879       .  S
Al665       O673   1.882       .  S
Al665       O675   1.904       .  S
Al665       O674   1.775       .  S
C666        O679   1.268       .  A
C666       C1753   1.470       .  S
O667        C677   1.270       .  A
O667       Al669   1.935       .  S
O668        C681   1.261       .  A
O668       Al678   1.894       .  S
Al669       O682   1.918       .  S
Al669       O679   1.955       .  S
Al669       O674   1.790       .  S
O670        C677   1.265       .  A
O670       Al678   1.903       .  S
O671        C680   1.266       .  A
O671       Al678   1.930       .  S
O672       Al678   1.912       .  S
O673        C680   1.260       .  A
O674       Al678   1.784       .  S
O675        C676   1.259       .  A
C676       C1729   1.473       .  S
C677       C1681   1.492       .  S
C680       C1713   1.479       .  S
C681        O682   1.263       .  A
C681       C1897   1.477       .  S
O683        C698   1.261       .  A
O683       Al691   1.931       .  S
C684        O694   1.262       .  A
C684        O685   1.258       .  A
C684       C1633   1.469       .  S
O685       Al687   1.890       .  S
O686        C688   1.255       .  A
O686       Al687   1.856       .  S
Al687       O695   1.888       .  S
Al687       O697   1.893       .  S
Al687       O696   1.776       .  S
C688        O701   1.276       .  A
C688       C1649   1.477       .  S
O689        C699   1.264       .  A
O689       Al691   1.930       .  S
O690        C703   1.263       .  A
O690       Al700   1.885       .  S
Al691       O704   1.953       .  S
Al691       O701   1.980       .  S
Al691       O696   1.787       .  S
O692        C699   1.261       .  A
O692       Al700   1.898       .  S
O693        C702   1.267       .  A
O693       Al700   1.937       .  S
O694       Al700   1.920       .  S
O695        C702   1.262       .  A
O696       Al700   1.780       .  S
O697        C698   1.254       .  A
C698       C1665   1.473       .  S
C699       C2217   1.491       .  S
C702       C1705   1.481       .  S
C703        O704   1.272       .  A
C703       C1625   1.494       .  S
O705        C720   1.260       .  A
O705       Al713   1.919       .  S
C706        O716   1.258       .  A
C706        O707   1.259       .  A
C706       C1721   1.466       .  S
O707       Al709   1.896       .  S
O708        C710   1.256       .  A
O708       Al709   1.868       .  S
Al709       O717   1.893       .  S
Al709       O719   1.910       .  S
Al709       O718   1.778       .  S
C710        O723   1.271       .  A
C710       C1601   1.473       .  S
O711        C721   1.265       .  A
O711       Al713   1.916       .  S
O712        C725   1.259       .  A
O712       Al722   1.880       .  S
Al713       O726   1.936       .  S
Al713       O723   1.963       .  S
Al713       O718   1.789       .  S
O714        C721   1.263       .  A
O714       Al722   1.907       .  S
O715        C724   1.266       .  A
O715       Al722   1.925       .  S
O716       Al722   1.904       .  S
O717        C724   1.262       .  A
O718       Al722   1.781       .  S
O719        C720   1.257       .  A
C720       C1585   1.472       .  S
C721       C1825   1.485       .  S
C724       C1641   1.480       .  S
C725        O726   1.266       .  A
C725       C2169   1.487       .  S
O727        C742   1.261       .  A
O727       Al735   1.930       .  S
C728        O738   1.256       .  A
C728        O729   1.259       .  A
C728       C1561   1.460       .  S
O729       Al731   1.898       .  S
O730        C732   1.256       .  A
O730       Al731   1.857       .  S
Al731       O739   1.884       .  S
Al731       O741   1.903       .  S
Al731       O740   1.771       .  S
C732        O745   1.276       .  A
C732       C1609   1.472       .  S
O733        C743   1.262       .  A
O733       Al735   1.917       .  S
O734        C747   1.257       .  A
O734       Al744   1.855       .  S
Al735       O748   1.954       .  S
Al735       O745   1.975       .  S
Al735       O740   1.786       .  S
O736        C743   1.265       .  A
O736       Al744   1.916       .  S
O737        C746   1.270       .  A
O737       Al744   1.951       .  S
O738       Al744   1.895       .  S
O739        C746   1.262       .  A
O740       Al744   1.777       .  S
O741        C742   1.257       .  A
C742       C1737   1.476       .  S
C743       C1545   1.493       .  S
C746       C1569   1.484       .  S
C747        O748   1.271       .  A
C747       C2089   1.483       .  S
O749        C764   1.263       .  A
O749       Al757   1.925       .  S
C750        O760   1.260       .  A
C750        O751   1.259       .  A
C750       C1577   1.471       .  S
O751       Al753   1.895       .  S
O752        C754   1.257       .  A
O752       Al753   1.878       .  S
Al753       O761   1.892       .  S
Al753       O763   1.903       .  S
Al753       O762   1.775       .  S
C754        O767   1.269       .  A
C754       C1745   1.474       .  S
O755        C765   1.265       .  A
O755       Al757   1.919       .  S
O756        C769   1.260       .  A
O756       Al766   1.878       .  S
Al757       O770   1.942       .  S
Al757       O767   1.951       .  S
Al757       O762   1.794       .  S
O758        C765   1.262       .  A
O758       Al766   1.901       .  S
O759        C768   1.264       .  A
O759       Al766   1.919       .  S
O760       Al766   1.910       .  S
O761        C768   1.262       .  A
O762       Al766   1.785       .  S
O763        C764   1.258       .  A
C764       C1673   1.473       .  S
C765       C2121   1.487       .  S
C768       C1529   1.479       .  S
C769        O770   1.267       .  A
C769       C1945   1.488       .  S
O771        C786   1.262       .  A
O771       Al779   1.935       .  S
C772        O782   1.258       .  A
C772        O773   1.256       .  A
C772       C1521   1.468       .  S
O773       Al775   1.893       .  S
O774        C776   1.258       .  A
O774       Al775   1.867       .  S
Al775       O783   1.890       .  S
Al775       O785   1.903       .  S
Al775       O784   1.780       .  S
C776        O789   1.278       .  A
C776       C1657   1.477       .  S
O777        C787   1.267       .  A
O777       Al779   1.927       .  S
O778        C791   1.260       .  A
O778       Al788   1.882       .  S
Al779       O792   1.949       .  S
Al779       O789   1.986       .  S
Al779       O784   1.781       .  S
O780        C787   1.261       .  A
O780       Al788   1.888       .  S
O781        C790   1.268       .  A
O781       Al788   1.919       .  S
O782       Al788   1.912       .  S
O783        C790   1.264       .  A
O784       Al788   1.773       .  S
O785        C786   1.254       .  A
C786       C1593   1.474       .  S
C787       C1785   1.484       .  S
C790       C1553   1.473       .  S
C791        O792   1.268       .  A
C791       C1513   1.490       .  S
O793        C808   1.262       .  A
O793       Al801   1.937       .  S
C794        O804   1.256       .  A
C794        O795   1.254       .  A
C794       C1481   1.464       .  S
O795       Al797   1.887       .  S
O796        C798   1.256       .  A
O796       Al797   1.857       .  S
Al797       O805   1.877       .  S
Al797       O807   1.894       .  S
Al797       O806   1.776       .  S
C798        O811   1.275       .  A
C798       C1465   1.471       .  S
O799        C809   1.265       .  A
O799       Al801   1.921       .  S
O800        C813   1.259       .  A
O800       Al810   1.875       .  S
Al801       O814   1.950       .  S
Al801       O811   1.973       .  S
Al801       O806   1.789       .  S
O802        C809   1.265       .  A
O802       Al810   1.918       .  S
O803        C812   1.272       .  A
O803       Al810   1.953       .  S
O804       Al810   1.905       .  S
O805        C812   1.262       .  A
O806       Al810   1.781       .  S
O807        C808   1.254       .  A
C808       C1449   1.474       .  S
C809       C2689   1.496       .  S
C812       C1497   1.484       .  S
C813        O814   1.269       .  A
C813       C1433   1.493       .  S
O815        C830   1.263       .  A
O815       Al823   1.925       .  S
C816        O826   1.258       .  A
C816        O817   1.258       .  A
C816       C1489   1.473       .  S
O817       Al819   1.898       .  S
O818        C820   1.255       .  A
O818       Al819   1.870       .  S
Al819       O827   1.875       .  S
Al819       O829   1.920       .  S
Al819       O828   1.776       .  S
C820        O833   1.272       .  A
C820       C1393   1.473       .  S
O821        C831   1.270       .  A
O821       Al823   1.924       .  S
O822        C835   1.259       .  A
O822       Al832   1.893       .  S
Al823       O836   1.932       .  S
Al823       O833   1.973       .  S
Al823       O828   1.785       .  S
O824        C831   1.266       .  A
O824       Al832   1.900       .  S
O825        C834   1.266       .  A
O825       Al832   1.921       .  S
O826       Al832   1.908       .  S
O827        C834   1.259       .  A
O828       Al832   1.778       .  S
O829        C830   1.260       .  A
C830       C1377   1.474       .  S
C831       C1369   1.485       .  S
C834       C1409   1.473       .  S
C835        O836   1.264       .  A
C835       C1801   1.486       .  S
O837        C852   1.262       .  A
O837       Al845   1.925       .  S
C838        O848   1.256       .  A
C838        O839   1.259       .  A
C838       C1417   1.464       .  S
O839       Al841   1.898       .  S
O840        C842   1.256       .  A
O840       Al841   1.864       .  S
Al841       O849   1.894       .  S
Al841       O851   1.910       .  S
Al841       O850   1.779       .  S
C842        O855   1.276       .  A
C842       C1353   1.480       .  S
O843        C853   1.264       .  A
O843       Al845   1.916       .  S
O844        C857   1.259       .  A
O844       Al854   1.873       .  S
Al845       O858   1.960       .  S
Al845       O855   1.981       .  S
Al845       O850   1.785       .  S
O846        C853   1.260       .  A
O846       Al854   1.890       .  S
O847        C856   1.265       .  A
O847       Al854   1.917       .  S
O848       Al854   1.894       .  S
O849        C856   1.263       .  A
O850       Al854   1.778       .  S
O851        C852   1.257       .  A
C852       C1337   1.474       .  S
C853       C1769   1.474       .  S
C856       C1473   1.476       .  S
C857        O858   1.271       .  A
C857       C2657   1.491       .  S
O859        C874   1.263       .  A
O859       Al867   1.932       .  S
C860        O870   1.261       .  A
C860        O861   1.256       .  A
C860       C1321   1.470       .  S
O861       Al863   1.888       .  S
O862        C864   1.257       .  A
O862       Al863   1.874       .  S
Al863       O871   1.896       .  S
Al863       O873   1.899       .  S
Al863       O872   1.778       .  S
C864        O877   1.269       .  A
C864       C1457   1.471       .  S
O865        C875   1.265       .  A
O865       Al867   1.924       .  S
O866        C879   1.264       .  A
O866       Al876   1.908       .  S
Al867       O880   1.926       .  S
Al867       O877   1.952       .  S
Al867       O872   1.789       .  S
O868        C875   1.261       .  A
O868       Al876   1.894       .  S
O869        C878   1.264       .  A
O869       Al876   1.917       .  S
O870       Al876   1.920       .  S
O871        C878   1.263       .  A
O872       Al876   1.783       .  S
O873        C874   1.256       .  A
C874       C1329   1.474       .  S
C875       C1881   1.484       .  S
C878       C1297   1.479       .  S
C879        O880   1.266       .  A
C879       C1281   1.493       .  S
O881        C896   1.258       .  A
O881       Al889   1.925       .  S
C882        O892   1.257       .  A
C882        O883   1.255       .  A
C882       C1305   1.464       .  S
O883       Al885   1.894       .  S
O884        C886   1.256       .  A
O884       Al885   1.851       .  S
Al885       O893   1.878       .  S
Al885       O895   1.910       .  S
Al885       O894   1.781       .  S
C886        O899   1.280       .  A
C886       C1345   1.479       .  S
O887        C897   1.263       .  A
O887       Al889   1.906       .  S
O888        C901   1.260       .  A
O888       Al898   1.881       .  S
Al889       O902   1.949       .  S
Al889       O899   1.993       .  S
Al889       O894   1.784       .  S
O890        C897   1.265       .  A
O890       Al898   1.918       .  S
O891        C900   1.274       .  A
O891       Al898   1.955       .  S
O892       Al898   1.908       .  S
O893        C900   1.264       .  A
O894       Al898   1.780       .  S
O895        C896   1.254       .  A
C896       C1385   1.475       .  S
C897       C1257   1.489       .  S
C900       C1265   1.483       .  S
C901        O902   1.269       .  A
C901       C2825   1.493       .  S
O903        C918   1.262       .  A
O903       Al911   1.929       .  S
C904        O914   1.259       .  A
C904        O905   1.256       .  A
C904       C1273   1.470       .  S
O905       Al907   1.891       .  S
O906        C908   1.259       .  A
O906       Al907   1.877       .  S
Al907       O915   1.902       .  S
Al907       O917   1.899       .  S
Al907       O916   1.780       .  S
C908        O921   1.272       .  A
C908       C1401   1.478       .  S
O909        C919   1.261       .  A
O909       Al911   1.912       .  S
O910        C923   1.262       .  A
O910       Al920   1.893       .  S
Al911       O924   1.941       .  S
Al911       O921   1.962       .  S
Al911       O916   1.794       .  S
O912        C919   1.261       .  A
O912       Al920   1.898       .  S
O913        C922   1.266       .  A
O913       Al920   1.920       .  S
O914       Al920   1.917       .  S
O915        C922   1.265       .  A
O916       Al920   1.787       .  S
O917        C918   1.256       .  A
C918       C1441   1.476       .  S
C919       C2777   1.479       .  S
C922       C1313   1.482       .  S
C923        O924   1.269       .  A
C923       C2009   1.495       .  S
O925        C940   1.264       .  A
O925       Al933   1.932       .  S
C926        O936   1.255       .  A
C926        O927   1.259       .  A
C926       C1233   1.460       .  S
O927       Al929   1.896       .  S
O928        C930   1.257       .  A
O928       Al929   1.876       .  S
Al929       O937   1.883       .  S
Al929       O939   1.908       .  S
Al929       O938   1.775       .  S
C930        O943   1.275       .  A
C930       C1217   1.485       .  S
O931        C941   1.266       .  A
O931       Al933   1.925       .  S
O932        C945   1.258       .  A
O932       Al942   1.876       .  S
Al933       O946   1.959       .  S
Al933       O943   1.983       .  S
Al933       O938   1.787       .  S
O934        C941   1.264       .  A
O934       Al942   1.909       .  S
O935        C944   1.267       .  A
O935       Al942   1.940       .  S
O936       Al942   1.893       .  S
O937        C944   1.261       .  A
O938       Al942   1.786       .  S
O939        C940   1.259       .  A
C940       C1185   1.477       .  S
C941       C2377   1.490       .  S
C944       C1201   1.481       .  S
C945        O946   1.271       .  A
C945       C1537   1.491       .  S
O947        C962   1.263       .  A
O947       Al955   1.936       .  S
C948        O958   1.259       .  A
C948        O949   1.257       .  A
C948       C1177   1.468       .  S
O949       Al951   1.888       .  S
O950        C952   1.257       .  A
O950       Al951   1.875       .  S
Al951       O959   1.901       .  S
Al951       O961   1.898       .  S
Al951       O960   1.783       .  S
C952        O965   1.273       .  A
C952       C1225   1.483       .  S
O953        C963   1.268       .  A
O953       Al955   1.939       .  S
O954        C967   1.262       .  A
O954       Al964   1.894       .  S
Al955       O968   1.941       .  S
Al955       O965   1.975       .  S
Al955       O960   1.789       .  S
O956        C963   1.260       .  A
O956       Al964   1.890       .  S
O957        C966   1.264       .  A
O957       Al964   1.913       .  S
O958       Al964   1.911       .  S
O959        C966   1.264       .  A
O960       Al964   1.785       .  S
O961        C962   1.255       .  A
C962       C1153   1.477       .  S
C963       C1289   1.489       .  S
C966       C1137   1.481       .  S
C967        O968   1.268       .  A
C967       C1689   1.493       .  S
O969        C984   1.265       .  A
O969       Al977   1.942       .  S
C970        O980   1.260       .  A
C970        O971   1.255       .  A
C970       C1105   1.473       .  S
O971       Al973   1.886       .  S
O972        C974   1.258       .  A
O972       Al973   1.874       .  S
Al973       O981   1.888       .  S
Al973       O983   1.897       .  S
Al973       O982   1.775       .  S
C974        O987   1.274       .  A
C974       C1121   1.471       .  S
O975        C985   1.268       .  A
O975       Al977   1.937       .  S
O976        C989   1.260       .  A
O976       Al986   1.882       .  S
Al977       O990   1.948       .  S
Al977       O987   1.969       .  S
Al977       O982   1.789       .  S
O978        C985   1.264       .  A
O978       Al986   1.903       .  S
O979        C988   1.269       .  A
O979       Al986   1.929       .  S
O980       Al986   1.922       .  S
O981        C988   1.263       .  A
O982       Al986   1.778       .  S
O983        C984   1.255       .  A
C984       C1193   1.475       .  S
C985       C2577   1.498       .  S
C988       C1169   1.478       .  S
C989        O990   1.268       .  A
C989       C1249   1.494       .  S
O991       C1006   1.260       .  A
O991       Al999   1.930       .  S
C992       O1002   1.260       .  A
C992        O993   1.254       .  A
C992       C1145   1.470       .  S
O993       Al995   1.882       .  S
O994        C996   1.259       .  A
O994       Al995   1.879       .  S
Al995      O1003   1.892       .  S
Al995      O1005   1.887       .  S
Al995      O1004   1.781       .  S
C996       O1009   1.270       .  A
C996       C1089   1.470       .  S
O997       C1007   1.263       .  A
O997       Al999   1.920       .  S
O998       C1011   1.264       .  A
O998      Al1008   1.899       .  S
Al999      O1012   1.919       .  S
Al999      O1009   1.946       .  S
Al999      O1004   1.794       .  S
O1000      C1007   1.259       .  A
O1000     Al1008   1.897       .  S
O1001      C1010   1.268       .  A
O1001     Al1008   1.935       .  S
O1002     Al1008   1.923       .  S
O1003      C1010   1.263       .  A
O1004     Al1008   1.790       .  S
O1005      C1006   1.252       .  A
C1006      C1081   1.474       .  S
C1007      C1617   1.486       .  S
C1010      C1113   1.484       .  S
C1011      O1012   1.266       .  A
C1011      C2505   1.487       .  S
O1013      C1028   1.262       .  A
O1013     Al1021   1.930       .  S
C1014      O1024   1.259       .  A
C1014      O1015   1.257       .  A
C1014      C1209   1.470       .  S
O1015     Al1017   1.891       .  S
O1016      C1018   1.259       .  A
O1016     Al1017   1.883       .  S
Al1017     O1025   1.895       .  S
Al1017     O1027   1.905       .  S
Al1017     O1026   1.777       .  S
C1018      O1031   1.269       .  A
C1018      C1129   1.476       .  S
O1019      C1029   1.265       .  A
O1019     Al1021   1.920       .  S
O1020      C1033   1.260       .  A
O1020     Al1030   1.888       .  S
Al1021     O1034   1.923       .  S
Al1021     O1031   1.949       .  S
Al1021     O1026   1.794       .  S
O1022      C1029   1.264       .  A
O1022     Al1030   1.912       .  S
O1023      C1032   1.266       .  A
O1023     Al1030   1.928       .  S
O1024     Al1030   1.912       .  S
O1025      C1032   1.263       .  A
O1026     Al1030   1.789       .  S
O1027      C1028   1.259       .  A
C1028      C1073   1.477       .  S
C1029      C1505   1.493       .  S
C1032      C1057   1.483       .  S
C1033      O1034   1.264       .  A
C1033      C1361   1.484       .  S
O1035      C1050   1.260       .  A
O1035     Al1043   1.930       .  S
C1036      O1046   1.259       .  A
C1036      O1037   1.254       .  A
C1036      C1065   1.472       .  S
O1037     Al1039   1.891       .  S
O1038      C1040   1.259       .  A
O1038     Al1039   1.861       .  S
Al1039     O1047   1.874       .  S
Al1039     O1049   1.912       .  S
Al1039     O1048   1.776       .  S
C1040      O1053   1.277       .  A
C1040      C1097   1.471       .  S
O1041      C1051   1.265       .  A
O1041     Al1043   1.911       .  S
O1042      C1055   1.258       .  A
O1042     Al1052   1.881       .  S
Al1043     O1056   1.937       .  S
Al1043     O1053   1.976       .  S
Al1043     O1048   1.786       .  S
O1044      C1051   1.267       .  A
O1044     Al1052   1.916       .  S
O1045      C1054   1.272       .  A
O1045     Al1052   1.940       .  S
O1046     Al1052   1.919       .  S
O1047      C1054   1.263       .  A
O1048     Al1052   1.780       .  S
O1049      C1050   1.255       .  A
C1050      C1161   1.475       .  S
C1051      C1425   1.491       .  S
C1054      C1241   1.474       .  S
C1055      O1056   1.266       .  A
C1055      C2345   1.491       .  S
C1057      C1058   1.408       .  A
C1057      C1062   1.405       .  A
C1058      C1059   1.401       .  A
C1058      H1067   1.083       .  S
C1059      C1060   1.403       .  A
C1059      H1068   1.084       .  S
C1060      C1066   1.410       .  A
C1060      C1061   1.416       .  A
C1061      C1063   1.399       .  A
C1061      C1062   1.403       .  A
C1062      H1069   1.085       .  S
C1063      C1064   1.393       .  A
C1063      H1070   1.084       .  S
C1064      C1065   1.404       .  A
C1064      H1071   1.084       .  S
C1065      C1066   1.405       .  A
C1066      H1072   1.085       .  S
C1073      C1074   1.403       .  A
C1073      C1078   1.409       .  A
C1074      C1075   1.396       .  A
C1074      H1083   1.084       .  S
C1075      C1076   1.401       .  A
C1075      H1084   1.084       .  S
C1076      C1082   1.406       .  A
C1076      C1077   1.416       .  A
C1077      C1079   1.407       .  A
C1077      C1078   1.414       .  A
C1078      H1085   1.084       .  S
C1079      C1080   1.405       .  A
C1079      H1086   1.083       .  S
C1080      C1081   1.404       .  A
C1080      H1087   1.083       .  S
C1081      C1082   1.404       .  A
C1082      H1088   1.085       .  S
C1089      C1090   1.401       .  A
C1089      C1094   1.407       .  A
C1090      C1091   1.398       .  A
C1090      H1099   1.084       .  S
C1091      C1092   1.404       .  A
C1091      H1100   1.084       .  S
C1092      C1098   1.403       .  A
C1092      C1093   1.413       .  A
C1093      C1095   1.405       .  A
C1093      C1094   1.406       .  A
C1094      H1101   1.085       .  S
C1095      C1096   1.401       .  A
C1095      H1102   1.084       .  S
C1096      C1097   1.402       .  A
C1096      H1103   1.083       .  S
C1097      C1098   1.407       .  A
C1098      H1104   1.085       .  S
C1105      C1106   1.405       .  A
C1105      C1110   1.405       .  A
C1106      C1107   1.391       .  A
C1106      H1115   1.084       .  S
C1107      C1108   1.398       .  A
C1107      H1116   1.084       .  S
C1108      C1114   1.401       .  A
C1108      C1109   1.416       .  A
C1109      C1111   1.403       .  A
C1109      C1110   1.411       .  A
C1110      H1117   1.084       .  S
C1111      C1112   1.402       .  A
C1111      H1118   1.084       .  S
C1112      C1113   1.408       .  A
C1112      H1119   1.083       .  S
C1113      C1114   1.404       .  A
C1114      H1120   1.085       .  S
C1121      C1122   1.403       .  A
C1121      C1126   1.407       .  A
C1122      C1123   1.399       .  A
C1122      H1131   1.084       .  S
C1123      C1124   1.403       .  A
C1123      H1132   1.084       .  S
C1124      C1130   1.405       .  A
C1124      C1125   1.414       .  A
C1125      C1127   1.405       .  A
C1125      C1126   1.407       .  A
C1126      H1133   1.084       .  S
C1127      C1128   1.401       .  A
C1127      H1134   1.083       .  S
C1128      C1129   1.403       .  A
C1128      H1135   1.083       .  S
C1129      C1130   1.406       .  A
C1130      H1136   1.085       .  S
C1137      C1138   1.408       .  A
C1137      C1142   1.403       .  A
C1138      C1139   1.399       .  A
C1138      H1147   1.083       .  S
C1139      C1140   1.401       .  A
C1139      H1148   1.084       .  S
C1140      C1146   1.409       .  A
C1140      C1141   1.417       .  A
C1141      C1143   1.398       .  A
C1141      C1142   1.402       .  A
C1142      H1149   1.085       .  S
C1143      C1144   1.391       .  A
C1143      H1150   1.084       .  S
C1144      C1145   1.406       .  A
C1144      H1151   1.084       .  S
C1145      C1146   1.402       .  A
C1146      H1152   1.084       .  S
C1153      C1154   1.404       .  A
C1153      C1158   1.406       .  A
C1154      C1155   1.403       .  A
C1154      H1163   1.083       .  S
C1155      C1156   1.405       .  A
C1155      H1164   1.084       .  S
C1156      C1162   1.411       .  A
C1156      C1157   1.415       .  A
C1157      C1159   1.403       .  A
C1157      C1158   1.408       .  A
C1158      H1165   1.085       .  S
C1159      C1160   1.399       .  A
C1159      H1166   1.084       .  S
C1160      C1161   1.403       .  A
C1160      H1167   1.084       .  S
C1161      C1162   1.407       .  A
C1162      H1168   1.084       .  S
C1169      C1170   1.406       .  A
C1169      C1174   1.408       .  A
C1170      C1171   1.394       .  A
C1170      H1179   1.083       .  S
C1171      C1172   1.401       .  A
C1171      H1180   1.084       .  S
C1172      C1178   1.398       .  A
C1172      C1173   1.413       .  A
C1173      C1175   1.406       .  A
C1173      C1174   1.404       .  A
C1174      H1181   1.084       .  S
C1175      C1176   1.401       .  A
C1175      H1182   1.083       .  S
C1176      C1177   1.401       .  A
C1176      H1183   1.083       .  S
C1177      C1178   1.404       .  A
C1178      H1184   1.085       .  S
C1185      C1186   1.403       .  A
C1185      C1190   1.407       .  A
C1186      C1187   1.400       .  A
C1186      H1195   1.083       .  S
C1187      C1188   1.404       .  A
C1187      H1196   1.084       .  S
C1188      C1194   1.410       .  A
C1188      C1189   1.415       .  A
C1189      C1191   1.404       .  A
C1189      C1190   1.412       .  A
C1190      H1197   1.085       .  S
C1191      C1192   1.401       .  A
C1191      H1198   1.084       .  S
C1192      C1193   1.405       .  A
C1192      H1199   1.084       .  S
C1193      C1194   1.406       .  A
C1194      H1200   1.085       .  S
C1201      C1202   1.406       .  A
C1201      C1206   1.409       .  A
C1202      C1203   1.393       .  A
C1202      H1211   1.083       .  S
C1203      C1204   1.399       .  A
C1203      H1212   1.084       .  S
C1204      C1210   1.400       .  A
C1204      C1205   1.414       .  A
C1205      C1207   1.406       .  A
C1205      C1206   1.409       .  A
C1206      H1213   1.084       .  S
C1207      C1208   1.403       .  A
C1207      H1214   1.083       .  S
C1208      C1209   1.403       .  A
C1208      H1215   1.083       .  S
C1209      C1210   1.402       .  A
C1210      H1216   1.085       .  S
C1217      C1218   1.407       .  A
C1217      C1222   1.407       .  A
C1218      C1219   1.401       .  A
C1218      H1227   1.084       .  S
C1219      C1220   1.403       .  A
C1219      H1228   1.084       .  S
C1220      C1226   1.415       .  A
C1220      C1221   1.417       .  A
C1221      C1223   1.403       .  A
C1221      C1222   1.415       .  A
C1222      H1229   1.084       .  S
C1223      C1224   1.401       .  A
C1223      H1230   1.083       .  S
C1224      C1225   1.405       .  A
C1224      H1231   1.084       .  S
C1225      C1226   1.407       .  A
C1226      H1232   1.084       .  S
C1233      C1234   1.401       .  A
C1233      C1238   1.398       .  A
C1234      C1235   1.400       .  A
C1234      H1243   1.083       .  S
C1235      C1236   1.406       .  A
C1235      H1244   1.083       .  S
C1236      C1242   1.404       .  A
C1236      C1237   1.415       .  A
C1237      C1239   1.397       .  A
C1237      C1238   1.394       .  A
C1238      H1245   1.085       .  S
C1239      C1240   1.390       .  A
C1239      H1246   1.084       .  S
C1240      C1241   1.406       .  A
C1240      H1247   1.083       .  S
C1241      C1242   1.407       .  A
C1242      H1248   1.084       .  S
C1249      C1250   1.409       .  A
C1249      C1254   1.412       .  A
C1250      C1251   1.395       .  A
C1250      H1259   1.083       .  S
C1251      C1252   1.398   1_565  A
C1251      H1260   1.084       .  S
C1252      C1258   1.406       .  A
C1252      C1253   1.414   1_545  A
C1253      C1255   1.406   1_565  A
C1253      C1254   1.416       .  A
C1254      H1261   1.084       .  S
C1255      C1256   1.405       .  A
C1255      H1262   1.083   1_545  S
C1256      C1257   1.407       .  A
C1256      H1263   1.083       .  S
C1257      C1258   1.406       .  A
C1258      H1264   1.085       .  S
C1265      C1266   1.408       .  A
C1265      C1270   1.411       .  A
C1266      C1267   1.391       .  A
C1266      H1275   1.083       .  S
C1267      C1268   1.398       .  A
C1267      H1276   1.084       .  S
C1268      C1274   1.397       .  A
C1268      C1269   1.414       .  A
C1269      C1271   1.408       .  A
C1269      C1270   1.410       .  A
C1270      H1277   1.084       .  S
C1271      C1272   1.405       .  A
C1271      H1278   1.083       .  S
C1272      C1273   1.403       .  A
C1272      H1279   1.083       .  S
C1273      C1274   1.401       .  A
C1274      H1280   1.085       .  S
C1281      C1282   1.409       .  A
C1281      C1286   1.407       .  A
C1282      C1283   1.404       .  A
C1282      H1291   1.083       .  S
C1283      C1284   1.404   1_545  A
C1283      H1292   1.083       .  S
C1284      C1290   1.417       .  A
C1284      C1285   1.416   1_565  A
C1285      C1287   1.398   1_545  A
C1285      C1286   1.408       .  A
C1286      H1293   1.084       .  S
C1287      C1288   1.394       .  A
C1287      H1294   1.084       .  S
C1288      C1289   1.409       .  A
C1288      H1295   1.084       .  S
C1289      C1290   1.409       .  A
C1290      H1296   1.084       .  S
C1297      C1298   1.408       .  A
C1297      C1302   1.403       .  A
C1298      C1299   1.398       .  A
C1298      H1307   1.083       .  S
C1299      C1300   1.401       .  A
C1299      H1308   1.083       .  S
C1300      C1306   1.406       .  A
C1300      C1301   1.416       .  A
C1301      C1303   1.400       .  A
C1301      C1302   1.401       .  A
C1302      H1309   1.084       .  S
C1303      C1304   1.393       .  A
C1303      H1310   1.084       .  S
C1304      C1305   1.403       .  A
C1304      H1311   1.084       .  S
C1305      C1306   1.401       .  A
C1306      H1312   1.084       .  S
C1313      C1314   1.408       .  A
C1313      C1318   1.405       .  A
C1314      C1315   1.397       .  A
C1314      H1323   1.083       .  S
C1315      C1316   1.400       .  A
C1315      H1324   1.084       .  S
C1316      C1322   1.407       .  A
C1316      C1317   1.417       .  A
C1317      C1319   1.400       .  A
C1317      C1318   1.404       .  A
C1318      H1325   1.084       .  S
C1319      C1320   1.395       .  A
C1319      H1326   1.084       .  S
C1320      C1321   1.405       .  A
C1320      H1327   1.084       .  S
C1321      C1322   1.401       .  A
C1322      H1328   1.084       .  S
C1329      C1330   1.404       .  A
C1329      C1334   1.405       .  A
C1330      C1331   1.402       .  A
C1330      H1339   1.083       .  S
C1331      C1332   1.405       .  A
C1331      H1340   1.084       .  S
C1332      C1338   1.411       .  A
C1332      C1333   1.415       .  A
C1333      C1335   1.402       .  A
C1333      C1334   1.407       .  A
C1334      H1341   1.085       .  S
C1335      C1336   1.398       .  A
C1335      H1342   1.084       .  S
C1336      C1337   1.403       .  A
C1336      H1343   1.084       .  S
C1337      C1338   1.407       .  A
C1338      H1344   1.084       .  S
C1345      C1346   1.407       .  A
C1345      C1350   1.405       .  A
C1346      C1347   1.399       .  A
C1346      H1355   1.084       .  S
C1347      C1348   1.401       .  A
C1347      H1356   1.084       .  S
C1348      C1354   1.413       .  A
C1348      C1349   1.418       .  A
C1349      C1351   1.402       .  A
C1349      C1350   1.414       .  A
C1350      H1357   1.084       .  S
C1351      C1352   1.400       .  A
C1351      H1358   1.084       .  S
C1352      C1353   1.407       .  A
C1352      H1359   1.084       .  S
C1353      C1354   1.405       .  A
C1354      H1360   1.084       .  S
C1361      C1362   1.407       .  A
C1361      C1366   1.404       .  A
C1362      C1363   1.404       .  A
C1362      H1371   1.083       .  S
C1363      C1364   1.405       .  A
C1363      H1372   1.084       .  S
C1364      C1370   1.413       .  A
C1364      C1365   1.415       .  A
C1365      C1367   1.397       .  A
C1365      C1366   1.401       .  A
C1366      H1373   1.085       .  S
C1367      C1368   1.391       .  A
C1367      H1374   1.084       .  S
C1368      C1369   1.409       .  A
C1368      H1375   1.083       .  S
C1369      C1370   1.409       .  A
C1370      H1376   1.084       .  S
C1377      C1378   1.404       .  A
C1377      C1382   1.405       .  A
C1378      C1379   1.399       .  A
C1378      H1387   1.084       .  S
C1379      C1380   1.403       .  A
C1379      H1388   1.084       .  S
C1380      C1386   1.408       .  A
C1380      C1381   1.416       .  A
C1381      C1383   1.404       .  A
C1381      C1382   1.410       .  A
C1382      H1389   1.084       .  S
C1383      C1384   1.401       .  A
C1383      H1390   1.083       .  S
C1384      C1385   1.403       .  A
C1384      H1391   1.084       .  S
C1385      C1386   1.405       .  A
C1386      H1392   1.084       .  S
C1393      C1394   1.404       .  A
C1393      C1398   1.404       .  A
C1394      C1395   1.400       .  A
C1394      H1403   1.083       .  S
C1395      C1396   1.403       .  A
C1395      H1404   1.084       .  S
C1396      C1402   1.411       .  A
C1396      C1397   1.417       .  A
C1397      C1399   1.402       .  A
C1397      C1398   1.409       .  A
C1398      H1405   1.085       .  S
C1399      C1400   1.398       .  A
C1399      H1406   1.084       .  S
C1400      C1401   1.405       .  A
C1400      H1407   1.084       .  S
C1401      C1402   1.405       .  A
C1402      H1408   1.084       .  S
C1409      C1410   1.406       .  A
C1409      C1414   1.406       .  A
C1410      C1411   1.391       .  A
C1410      H1419   1.083       .  S
C1411      C1412   1.399       .  A
C1411      H1420   1.084       .  S
C1412      C1418   1.395       .  A
C1412      C1413   1.414       .  A
C1413      C1415   1.404       .  A
C1413      C1414   1.401       .  A
C1414      H1421   1.084       .  S
C1415      C1416   1.399       .  A
C1415      H1422   1.083       .  S
C1416      C1417   1.402       .  A
C1416      H1423   1.083       .  S
C1417      C1418   1.401       .  A
C1418      H1424   1.085       .  S
C1425      C1426   1.408       .  A
C1425      C1430   1.406       .  A
C1426      C1427   1.406       .  A
C1426      H1435   1.083       .  S
C1427      C1428   1.406       .  A
C1427      H1436   1.083       .  S
C1428      C1434   1.417       .  A
C1428      C1429   1.414       .  A
C1429      C1431   1.397       .  A
C1429      C1430   1.405       .  A
C1430      H1437   1.084       .  S
C1431      C1432   1.393       .  A
C1431      H1438   1.084       .  S
C1432      C1433   1.409       .  A
C1432      H1439   1.083       .  S
C1433      C1434   1.412       .  A
C1434      H1440   1.084       .  S
C1441      C1442   1.404       .  A
C1441      C1446   1.406       .  A
C1442      C1443   1.398       .  A
C1442      H1451   1.084       .  S
C1443      C1444   1.403       .  A
C1443      H1452   1.084       .  S
C1444      C1450   1.408       .  A
C1444      C1445   1.415       .  A
C1445      C1447   1.405       .  A
C1445      C1446   1.412       .  A
C1446      H1453   1.084       .  S
C1447      C1448   1.403       .  A
C1447      H1454   1.083       .  S
C1448      C1449   1.403       .  A
C1448      H1455   1.083       .  S
C1449      C1450   1.406       .  A
C1450      H1456   1.085       .  S
C1457      C1458   1.401       .  A
C1457      C1462   1.406       .  A
C1458      C1459   1.400       .  A
C1458      H1467   1.084       .  S
C1459      C1460   1.405       .  A
C1459      H1468   1.083       .  S
C1460      C1466   1.404       .  A
C1460      C1461   1.413       .  A
C1461      C1463   1.405       .  A
C1461      C1462   1.405       .  A
C1462      H1469   1.084       .  S
C1463      C1464   1.401       .  A
C1463      H1470   1.083       .  S
C1464      C1465   1.402       .  A
C1464      H1471   1.084       .  S
C1465      C1466   1.408       .  A
C1466      H1472   1.085       .  S
C1473      C1474   1.407       .  A
C1473      C1478   1.404       .  A
C1474      C1475   1.396       .  A
C1474      H1483   1.083       .  S
C1475      C1476   1.400       .  A
C1475      H1484   1.084       .  S
C1476      C1482   1.404       .  A
C1476      C1477   1.416       .  A
C1477      C1479   1.400       .  A
C1477      C1478   1.400       .  A
C1478      H1485   1.085       .  S
C1479      C1480   1.393       .  A
C1479      H1486   1.084       .  S
C1480      C1481   1.404       .  A
C1480      H1487   1.084       .  S
C1481      C1482   1.400       .  A
C1482      H1488   1.084       .  S
C1489      C1490   1.403       .  A
C1489      C1494   1.402       .  A
C1490      C1491   1.403       .  A
C1490      H1499   1.083       .  S
C1491      C1492   1.406       .  A
C1491      H1500   1.084       .  S
C1492      C1498   1.410       .  A
C1492      C1493   1.414       .  A
C1493      C1495   1.398       .  A
C1493      C1494   1.400       .  A
C1494      H1501   1.085       .  S
C1495      C1496   1.392       .  A
C1495      H1502   1.084       .  S
C1496      C1497   1.408       .  A
C1496      H1503   1.083       .  S
C1497      C1498   1.410       .  A
C1498      H1504   1.084       .  S
C1505      C1506   1.408       .  A
C1505      C1510   1.407       .  A
C1506      C1507   1.407       .  A
C1506      H1515   1.083       .  S
C1507      C1508   1.407       .  A
C1507      H1516   1.083       .  S
C1508      C1514   1.417       .  A
C1508      C1509   1.414       .  A
C1509      C1511   1.399       .  A
C1509      C1510   1.405       .  A
C1510      H1517   1.084       .  S
C1511      C1512   1.393       .  A
C1511      H1518   1.084       .  S
C1512      C1513   1.407       .  A
C1512      H1519   1.083       .  S
C1513      C1514   1.412       .  A
C1514      H1520   1.084       .  S
C1521      C1522   1.404       .  A
C1521      C1526   1.403       .  A
C1522      C1523   1.390       .  A
C1522      H1531   1.084       .  S
C1523      C1524   1.398       .  A
C1523      H1532   1.084       .  S
C1524      C1530   1.399       .  A
C1524      C1525   1.416       .  A
C1525      C1527   1.402       .  A
C1525      C1526   1.408       .  A
C1526      H1533   1.084       .  S
C1527      C1528   1.400       .  A
C1527      H1534   1.084       .  S
C1528      C1529   1.408       .  A
C1528      H1535   1.083       .  S
C1529      C1530   1.403       .  A
C1530      H1536   1.085       .  S
C1537      C1538   1.406       .  A
C1537      C1542   1.409       .  A
C1538      C1539   1.409       .  A
C1538      H1547   1.083       .  S
C1539      C1540   1.409       .  A
C1539      H1548   1.083       .  S
C1540      C1546   1.417       .  A
C1540      C1541   1.412       .  A
C1541      C1543   1.400       .  A
C1541      C1542   1.404       .  A
C1542      H1549   1.084       .  S
C1543      C1544   1.395       .  A
C1543      H1550   1.084       .  S
C1544      C1545   1.407       .  A
C1544      H1551   1.083       .  S
C1545      C1546   1.414       .  A
C1546      H1552   1.084       .  S
C1553      C1554   1.405       .  A
C1553      C1558   1.406       .  A
C1554      C1555   1.393       .  A
C1554      H1563   1.083       .  S
C1555      C1556   1.400       .  A
C1555      H1564   1.084       .  S
C1556      C1562   1.395       .  A
C1556      C1557   1.413       .  A
C1557      C1559   1.405       .  A
C1557      C1558   1.399       .  A
C1558      H1565   1.085       .  S
C1559      C1560   1.397       .  A
C1559      H1566   1.084       .  S
C1560      C1561   1.400       .  A
C1560      H1567   1.083       .  S
C1561      C1562   1.401       .  A
C1562      H1568   1.086       .  S
C1569      C1570   1.407       .  A
C1569      C1574   1.410       .  A
C1570      C1571   1.392       .  A
C1570      H1579   1.083       .  S
C1571      C1572   1.398       .  A
C1571      H1580   1.084       .  S
C1572      C1578   1.398       .  A
C1572      C1573   1.414       .  A
C1573      C1575   1.407       .  A
C1573      C1574   1.410       .  A
C1574      H1581   1.084       .  S
C1575      C1576   1.404       .  A
C1575      H1582   1.084       .  S
C1576      C1577   1.403       .  A
C1576      H1583   1.083       .  S
C1577      C1578   1.402       .  A
C1578      H1584   1.086       .  S
C1585      C1586   1.402       .  A
C1585      C1590   1.406       .  A
C1586      C1587   1.397       .  A
C1586      H1595   1.084       .  S
C1587      C1588   1.402       .  A
C1587      H1596   1.084       .  S
C1588      C1594   1.406       .  A
C1588      C1589   1.416       .  A
C1589      C1591   1.405       .  A
C1589      C1590   1.411       .  A
C1590      H1597   1.084       .  S
C1591      C1592   1.402       .  A
C1591      H1598   1.084       .  S
C1592      C1593   1.404       .  A
C1592      H1599   1.084       .  S
C1593      C1594   1.405       .  A
C1594      H1600   1.085       .  S
C1601      C1602   1.405       .  A
C1601      C1606   1.403       .  A
C1602      C1603   1.397       .  A
C1602      H1611   1.084       .  S
C1603      C1604   1.401       .  A
C1603      H1612   1.084       .  S
C1604      C1610   1.409       .  A
C1604      C1605   1.418       .  A
C1605      C1607   1.401       .  A
C1605      C1606   1.410       .  A
C1606      H1613   1.085       .  S
C1607      C1608   1.398       .  A
C1607      H1614   1.084       .  S
C1608      C1609   1.406       .  A
C1608      H1615   1.084       .  S
C1609      C1610   1.402       .  A
C1610      H1616   1.085       .  S
C1617      C1618   1.405       .  A
C1617      C1622   1.406       .  A
C1618      C1619   1.406       .  A
C1618      H1627   1.083       .  S
C1619      C1620   1.407   1_455  A
C1619      H1628   1.083   1_455  S
C1620      C1626   1.415       .  A
C1620      C1621   1.414       .  A
C1621      C1623   1.399       .  A
C1621      C1622   1.405   1_655  A
C1622      H1629   1.085       .  S
C1623      C1624   1.395       .  A
C1623      H1630   1.084       .  S
C1624      C1625   1.409       .  A
C1624      H1631   1.083       .  S
C1625      C1626   1.413       .  A
C1626      H1632   1.084       .  S
C1633      C1634   1.405       .  A
C1633      C1638   1.402       .  A
C1634      C1635   1.391       .  A
C1634      H1643   1.084       .  S
C1635      C1636   1.398       .  A
C1635      H1644   1.084       .  S
C1636      C1642   1.401       .  A
C1636      C1637   1.416       .  A
C1637      C1639   1.402       .  A
C1637      C1638   1.408       .  A
C1638      H1645   1.084       .  S
C1639      C1640   1.399       .  A
C1639      H1646   1.083       .  S
C1640      C1641   1.407       .  A
C1640      H1647   1.083       .  S
C1641      C1642   1.404       .  A
C1642      H1648   1.085       .  S
C1649      C1650   1.406       .  A
C1649      C1654   1.405       .  A
C1650      C1651   1.399       .  A
C1650      H1659   1.084       .  S
C1651      C1652   1.402       .  A
C1651      H1660   1.084       .  S
C1652      C1658   1.412       .  A
C1652      C1653   1.417       .  A
C1653      C1655   1.402       .  A
C1653      C1654   1.413       .  A
C1654      H1661   1.084       .  S
C1655      C1656   1.400       .  A
C1655      H1662   1.084       .  S
C1656      C1657   1.405       .  A
C1656      H1663   1.084       .  S
C1657      C1658   1.405       .  A
C1658      H1664   1.085       .  S
C1665      C1666   1.403       .  A
C1665      C1670   1.407       .  A
C1666      C1667   1.399       .  A
C1666      H1675   1.084       .  S
C1667      C1668   1.403       .  A
C1667      H1676   1.083       .  S
C1668      C1674   1.408       .  A
C1668      C1669   1.415       .  A
C1669      C1671   1.405       .  A
C1669      C1670   1.410       .  A
C1670      H1677   1.085       .  S
C1671      C1672   1.401       .  A
C1671      H1678   1.083       .  S
C1672      C1673   1.403       .  A
C1672      H1679   1.084       .  S
C1673      C1674   1.405       .  A
C1674      H1680   1.085       .  S
C1681      C1682   1.409       .  A
C1681      C1686   1.411       .  A
C1682      C1683   1.394       .  A
C1682      H1691   1.083       .  S
C1683      C1684   1.399       .  A
C1683      H1692   1.084       .  S
C1684      C1690   1.407   1_655  A
C1684      C1685   1.414       .  A
C1685      C1687   1.406       .  A
C1685      C1686   1.417       .  A
C1686      H1693   1.084       .  S
C1687      C1688   1.406   1_655  A
C1687      H1694   1.083       .  S
C1688      C1689   1.408       .  A
C1688      H1695   1.083       .  S
C1689      C1690   1.408       .  A
C1690      H1696   1.084       .  S
C1697      C1698   1.403       .  A
C1697      C1702   1.404       .  A
C1698      C1699   1.404       .  A
C1698      H1707   1.083       .  S
C1699      C1700   1.407       .  A
C1699      H1708   1.083       .  S
C1700      C1706   1.408       .  A
C1700      C1701   1.413       .  A
C1701      C1703   1.399       .  A
C1701      C1702   1.398       .  A
C1702      H1709   1.085       .  S
C1703      C1704   1.392       .  A
C1703      H1710   1.084       .  S
C1704      C1705   1.406       .  A
C1704      H1711   1.083       .  S
C1705      C1706   1.410       .  A
C1706      H1712   1.084       .  S
C1713      C1714   1.407       .  A
C1713      C1718   1.408       .  A
C1714      C1715   1.393       .  A
C1714      H1723   1.083       .  S
C1715      C1716   1.399       .  A
C1715      H1724   1.084       .  S
C1716      C1722   1.398       .  A
C1716      C1717   1.414       .  A
C1717      C1719   1.406       .  A
C1717      C1718   1.406       .  A
C1718      H1725   1.084       .  S
C1719      C1720   1.401       .  A
C1719      H1726   1.083       .  S
C1720      C1721   1.402       .  A
C1720      H1727   1.083       .  S
C1721      C1722   1.402       .  A
C1722      H1728   1.085       .  S
C1729      C1730   1.403       .  A
C1729      C1734   1.405       .  A
C1730      C1731   1.404       .  A
C1730      H1739   1.083       .  S
C1731      C1732   1.406       .  A
C1731      H1740   1.083       .  S
C1732      C1738   1.412       .  A
C1732      C1733   1.415       .  A
C1733      C1735   1.402       .  A
C1733      C1734   1.406       .  A
C1734      H1741   1.085       .  S
C1735      C1736   1.397       .  A
C1735      H1742   1.084       .  S
C1736      C1737   1.404       .  A
C1736      H1743   1.084       .  S
C1737      C1738   1.407       .  A
C1738      H1744   1.084       .  S
C1745      C1746   1.403       .  A
C1745      C1750   1.406       .  A
C1746      C1747   1.401       .  A
C1746      H1755   1.083       .  S
C1747      C1748   1.405       .  A
C1747      H1756   1.084       .  S
C1748      C1754   1.407       .  A
C1748      C1749   1.414       .  A
C1749      C1751   1.403       .  A
C1749      C1750   1.405       .  A
C1750      H1757   1.085       .  S
C1751      C1752   1.399       .  A
C1751      H1758   1.084       .  S
C1752      C1753   1.403       .  A
C1752      H1759   1.084       .  S
C1753      C1754   1.406       .  A
C1754      H1760   1.085       .  S
C1761      C1762   1.408       .  A
C1761      C1766   1.404       .  A
C1762      C1763   1.401       .  A
C1762      H1771   1.083       .  S
C1763      C1764   1.403       .  A
C1763      H1772   1.084       .  S
C1764      C1770   1.410       .  A
C1764      C1765   1.416       .  A
C1765      C1767   1.398       .  A
C1765      C1766   1.402       .  A
C1766      H1773   1.084       .  S
C1767      C1768   1.392       .  A
C1767      H1774   1.084       .  S
C1768      C1769   1.405       .  A
C1768      H1775   1.084       .  S
C1769      C1770   1.405       .  A
C1770      H1776   1.084       .  S
C1777      C1778   1.408       .  A
C1777      C1782   1.404       .  A
C1778      C1779   1.403       .  A
C1778      H1787   1.083       .  S
C1779      C1780   1.404       .  A
C1779      H1788   1.084       .  S
C1780      C1786   1.413       .  A
C1780      C1781   1.415       .  A
C1781      C1783   1.397       .  A
C1781      C1782   1.403       .  A
C1782      H1789   1.084       .  S
C1783      C1784   1.392       .  A
C1783      H1790   1.084       .  S
C1784      C1785   1.408       .  A
C1784      H1791   1.083       .  S
C1785      C1786   1.408       .  A
C1786      H1792   1.084       .  S
C1793      C1794   1.410       .  A
C1793      C1798   1.411       .  A
C1794      C1795   1.393       .  A
C1794      H1803   1.083       .  S
C1795      C1796   1.398       .  A
C1795      H1804   1.084       .  S
C1796      C1802   1.405       .  A
C1796      C1797   1.415       .  A
C1797      C1799   1.406       .  A
C1797      C1798   1.416       .  A
C1798      H1805   1.084       .  S
C1799      C1800   1.405       .  A
C1799      H1806   1.083       .  S
C1800      C1801   1.406       .  A
C1800      H1807   1.083       .  S
C1801      C1802   1.405       .  A
C1802      H1808   1.085       .  S
C1809      C1810   1.405       .  A
C1809      C1814   1.405       .  A
C1810      C1811   1.407       .  A
C1810      H1819   1.083       .  S
C1811      C1812   1.409       .  A
C1811      H1820   1.083       .  S
C1812      C1818   1.415       .  A
C1812      C1813   1.413       .  A
C1813      C1815   1.399       .  A
C1813      C1814   1.402       .  A
C1814      H1821   1.085       .  S
C1815      C1816   1.394       .  A
C1815      H1822   1.084       .  S
C1816      C1817   1.408       .  A
C1816      H1823   1.083       .  S
C1817      C1818   1.414       .  A
C1818      H1824   1.084       .  S
C1825      C1826   1.406       .  A
C1825      C1830   1.405       .  A
C1826      C1827   1.406       .  A
C1826      H1835   1.083       .  S
C1827      C1828   1.407       .  A
C1827      H1836   1.083       .  S
C1828      C1834   1.415   1_565  A
C1828      C1829   1.414       .  A
C1829      C1831   1.398   1_565  A
C1829      C1830   1.403       .  A
C1830      H1837   1.085       .  S
C1831      C1832   1.393       .  A
C1831      H1838   1.084   1_545  S
C1832      C1833   1.409       .  A
C1832      H1839   1.083       .  S
C1833      C1834   1.412       .  A
C1834      H1840   1.084       .  S
C1841      C1842   1.405       .  A
C1841      C1846   1.407       .  A
C1842      C1843   1.395       .  A
C1842      H1851   1.082       .  S
C1843      C1844   1.400       .  A
C1843      H1852   1.084       .  S
C1844      C1850   1.405       .  A
C1844      C1845   1.416       .  A
C1845      C1847   1.406       .  A
C1845      C1846   1.413       .  A
C1846      H1853   1.084       .  S
C1847      C1848   1.403       .  A
C1847      H1854   1.083       .  S
C1848      C1849   1.402       .  A
C1848      H1855   1.083       .  S
C1849      C1850   1.404       .  A
C1850      H1856   1.085       .  S
C1857      C1858   1.402       .  A
C1857      C1862   1.406       .  A
C1858      C1859   1.398       .  A
C1858      H1867   1.082       .  S
C1859      C1860   1.402       .  A
C1859      H1868   1.084       .  S
C1860      C1866   1.404       .  A
C1860      C1861   1.414       .  A
C1861      C1863   1.404       .  A
C1861      C1862   1.407       .  A
C1862      H1869   1.085       .  S
C1863      C1864   1.401       .  A
C1863      H1870   1.084       .  S
C1864      C1865   1.403       .  A
C1864      H1871   1.083       .  S
C1865      C1866   1.406       .  A
C1866      H1872   1.085       .  S
C1873      C1874   1.407       .  A
C1873      C1878   1.412       .  A
C1874      C1875   1.392       .  A
C1874      H1883   1.083       .  S
C1875      C1876   1.398   1_655  A
C1875      H1884   1.084       .  S
C1876      C1882   1.400       .  A
C1876      C1877   1.413   1_455  A
C1877      C1879   1.408   1_655  A
C1877      C1878   1.414       .  A
C1878      H1885   1.084       .  S
C1879      C1880   1.407       .  A
C1879      H1886   1.083   1_455  S
C1880      C1881   1.405       .  A
C1880      H1887   1.083       .  S
C1881      C1882   1.406       .  A
C1882      H1888   1.085       .  S
C1889      C1890   1.409       .  A
C1889      C1894   1.409       .  A
C1890      C1891   1.393       .  A
C1890      H1899   1.083       .  S
C1891      C1892   1.398   1_545  A
C1891      H1900   1.084       .  S
C1892      C1898   1.402       .  A
C1892      C1893   1.415   1_565  A
C1893      C1895   1.404   1_545  A
C1893      C1894   1.410       .  A
C1894      H1901   1.084       .  S
C1895      C1896   1.402       .  A
C1895      H1902   1.084   1_565  S
C1896      C1897   1.405       .  A
C1896      H1903   1.083       .  S
C1897      C1898   1.403       .  A
C1898      H1904   1.085       .  S
C1905      C1906   1.402       .  A
C1905      C1910   1.404       .  A
C1906      C1907   1.401       .  A
C1906      H1915   1.083       .  S
C1907      C1908   1.406       .  A
C1907      H1916   1.084       .  S
C1908      C1914   1.403       .  A
C1908      C1909   1.413       .  A
C1909      C1911   1.400       .  A
C1909      C1910   1.397       .  A
C1910      H1917   1.085       .  S
C1911      C1912   1.394       .  A
C1911      H1918   1.084       .  S
C1912      C1913   1.406       .  A
C1912      H1919   1.083       .  S
C1913      C1914   1.408       .  A
C1914      H1920   1.084       .  S
C1921      C1922   1.403       .  A
C1921      C1926   1.407       .  A
C1922      C1923   1.400       .  A
C1922      H1931   1.084       .  S
C1923      C1924   1.404       .  A
C1923      H1932   1.084       .  S
C1924      C1930   1.407       .  A
C1924      C1925   1.414       .  A
C1925      C1927   1.405       .  A
C1925      C1926   1.408       .  A
C1926      H1933   1.085       .  S
C1927      C1928   1.401       .  A
C1927      H1934   1.084       .  S
C1928      C1929   1.403       .  A
C1928      H1935   1.084       .  S
C1929      C1930   1.408       .  A
C1930      H1936   1.085       .  S
C1937      C1938   1.406       .  A
C1937      C1942   1.411       .  A
C1938      C1939   1.388       .  A
C1938      H1947   1.084       .  S
C1939      C1940   1.396       .  A
C1939      H1948   1.084       .  S
C1940      C1946   1.398       .  A
C1940      C1941   1.414       .  A
C1941      C1943   1.407       .  A
C1941      C1942   1.416       .  A
C1942      H1949   1.084       .  S
C1943      C1944   1.408       .  A
C1943      H1950   1.084       .  S
C1944      C1945   1.408       .  A
C1944      H1951   1.083       .  S
C1945      C1946   1.404       .  A
C1946      H1952   1.085       .  S
C1953      C1954   1.405       .  A
C1953      C1958   1.409       .  A
C1954      C1955   1.394       .  A
C1954      H1963   1.083       .  S
C1955      C1956   1.401       .  A
C1955      H1964   1.084       .  S
C1956      C1962   1.398       .  A
C1956      C1957   1.413       .  A
C1957      C1959   1.406       .  A
C1957      C1958   1.403       .  A
C1958      H1965   1.084       .  S
C1959      C1960   1.400       .  A
C1959      H1966   1.083       .  S
C1960      C1961   1.401       .  A
C1960      H1967   1.083       .  S
C1961      C1962   1.403       .  A
C1962      H1968   1.085       .  S
C1969      C1970   1.402       .  A
C1969      C1974   1.404       .  A
C1970      C1971   1.401       .  A
C1970      H1979   1.083       .  S
C1971      C1972   1.405       .  A
C1971      H1980   1.083       .  S
C1972      C1978   1.408       .  A
C1972      C1973   1.415       .  A
C1973      C1975   1.403       .  A
C1973      C1974   1.406       .  A
C1974      H1981   1.085       .  S
C1975      C1976   1.398       .  A
C1975      H1982   1.083       .  S
C1976      C1977   1.403       .  A
C1976      H1983   1.084       .  S
C1977      C1978   1.405       .  A
C1978      H1984   1.085       .  S
C1985      C1986   1.408       .  A
C1985      C1990   1.401       .  A
C1986      C1987   1.395       .  A
C1986      H1995   1.083       .  S
C1987      C1988   1.399       .  A
C1987      H1996   1.084       .  S
C1988      C1994   1.403       .  A
C1988      C1989   1.417       .  A
C1989      C1991   1.399       .  A
C1989      C1990   1.399       .  A
C1990      H1997   1.085       .  S
C1991      C1992   1.391       .  A
C1991      H1998   1.084       .  S
C1992      C1993   1.404       .  A
C1992      H1999   1.084       .  S
C1993      C1994   1.399       .  A
C1994      H2000   1.085       .  S
C2001      C2002   1.407       .  A
C2001      C2006   1.412       .  A
C2002      C2003   1.395       .  A
C2002      H2011   1.083       .  S
C2003      C2004   1.400       .  A
C2003      H2012   1.084       .  S
C2004      C2010   1.407   1_655  A
C2004      C2005   1.414       .  A
C2005      C2007   1.406   1_655  A
C2005      C2006   1.417       .  A
C2006      H2013   1.084       .  S
C2007      C2008   1.407       .  A
C2007      H2014   1.083   1_455  S
C2008      C2009   1.408       .  A
C2008      H2015   1.083       .  S
C2009      C2010   1.409       .  A
C2010      H2016   1.084       .  S
C2017      C2018   1.404       .  A
C2017      C2022   1.402       .  A
C2018      C2019   1.401       .  A
C2018      H2027   1.083       .  S
C2019      C2020   1.405       .  A
C2019      H2028   1.084       .  S
C2020      C2026   1.407       .  A
C2020      C2021   1.414       .  A
C2021      C2023   1.398       .  A
C2021      C2022   1.399       .  A
C2022      H2029   1.085       .  S
C2023      C2024   1.392       .  A
C2023      H2030   1.084       .  S
C2024      C2025   1.408       .  A
C2024      H2031   1.083       .  S
C2025      C2026   1.408       .  A
C2026      H2032   1.084       .  S
C2033      C2034   1.405       .  A
C2033      C2038   1.408       .  A
C2034      C2035   1.392       .  A
C2034      H2043   1.083       .  S
C2035      C2036   1.399       .  A
C2035      H2044   1.084       .  S
C2036      C2042   1.395       .  A
C2036      C2037   1.413       .  A
C2037      C2039   1.405       .  A
C2037      C2038   1.403       .  A
C2038      H2045   1.084       .  S
C2039      C2040   1.400       .  A
C2039      H2046   1.084       .  S
C2040      C2041   1.403       .  A
C2040      H2047   1.083       .  S
C2041      C2042   1.402       .  A
C2042      H2048   1.085       .  S
C2049      C2050   1.405       .  A
C2049      C2054   1.402       .  A
C2050      C2051   1.401       .  A
C2050      H2059   1.083       .  S
C2051      C2052   1.403       .  A
C2051      H2060   1.084       .  S
C2052      C2058   1.412       .  A
C2052      C2053   1.417       .  A
C2053      C2055   1.400       .  A
C2053      C2054   1.407       .  A
C2054      H2061   1.085       .  S
C2055      C2056   1.395       .  A
C2055      H2062   1.084       .  S
C2056      C2057   1.405       .  A
C2056      H2063   1.084       .  S
C2057      C2058   1.405       .  A
C2058      H2064   1.084       .  S
C2065      C2066   1.404       .  A
C2065      C2070   1.407       .  A
C2066      C2067   1.403       .  A
C2066      H2075   1.083       .  S
C2067      C2068   1.405       .  A
C2067      H2076   1.083       .  S
C2068      C2074   1.414       .  A
C2068      C2069   1.415       .  A
C2069      C2071   1.404       .  A
C2069      C2070   1.411       .  A
C2070      H2077   1.085       .  S
C2071      C2072   1.401       .  A
C2071      H2078   1.083       .  S
C2072      C2073   1.404       .  A
C2072      H2079   1.084       .  S
C2073      C2074   1.409       .  A
C2074      H2080   1.084       .  S
C2081      C2082   1.405       .  A
C2081      C2086   1.400       .  A
C2082      C2083   1.406       .  A
C2082      H2091   1.083       .  S
C2083      C2084   1.407       .  A
C2083      H2092   1.083       .  S
C2084      C2090   1.413       .  A
C2084      C2085   1.415       .  A
C2085      C2087   1.394       .  A
C2085      C2086   1.395       .  A
C2086      H2093   1.086       .  S
C2087      C2088   1.387       .  A
C2087      H2094   1.084       .  S
C2088      C2089   1.410       .  A
C2088      H2095   1.083       .  S
C2089      C2090   1.410       .  A
C2090      H2096   1.084       .  S
C2097      C2098   1.403       .  A
C2097      C2102   1.400       .  A
C2098      C2099   1.393       .  A
C2098      H2107   1.084       .  S
C2099      C2100   1.400       .  A
C2099      H2108   1.084       .  S
C2100      C2106   1.401       .  A
C2100      C2101   1.417       .  A
C2101      C2103   1.400       .  A
C2101      C2102   1.403       .  A
C2102      H2109   1.085       .  S
C2103      C2104   1.396       .  A
C2103      H2110   1.084       .  S
C2104      C2105   1.407       .  A
C2104      H2111   1.083       .  S
C2105      C2106   1.403       .  A
C2106      H2112   1.085       .  S
C2113      C2114   1.406       .  A
C2113      C2118   1.410       .  A
C2114      C2115   1.392       .  A
C2114      H2123   1.083       .  S
C2115      C2116   1.399       .  A
C2115      H2124   1.084       .  S
C2116      C2122   1.401       .  A
C2116      C2117   1.413       .  A
C2117      C2119   1.407       .  A
C2117      C2118   1.414       .  A
C2118      H2125   1.084       .  S
C2119      C2120   1.406       .  A
C2119      H2126   1.083       .  S
C2120      C2121   1.406       .  A
C2120      H2127   1.083       .  S
C2121      C2122   1.407       .  A
C2122      H2128   1.085       .  S
C2129      C2130   1.407       .  A
C2129      C2134   1.408       .  A
C2130      C2131   1.395       .  A
C2130      H2139   1.083       .  S
C2131      C2132   1.401       .  A
C2131      H2140   1.084       .  S
C2132      C2138   1.401       .  A
C2132      C2133   1.414       .  A
C2133      C2135   1.405       .  A
C2133      C2134   1.404       .  A
C2134      H2141   1.085       .  S
C2135      C2136   1.400       .  A
C2135      H2142   1.084       .  S
C2136      C2137   1.402       .  A
C2136      H2143   1.083       .  S
C2137      C2138   1.403       .  A
C2138      H2144   1.086       .  S
C2145      C2146   1.403       .  A
C2145      C2150   1.402       .  A
C2146      C2147   1.390       .  A
C2146      H2155   1.084       .  S
C2147      C2148   1.398       .  A
C2147      H2156   1.084       .  S
C2148      C2154   1.397       .  A
C2148      C2149   1.416       .  A
C2149      C2151   1.402       .  A
C2149      C2150   1.405       .  A
C2150      H2157   1.085       .  S
C2151      C2152   1.399       .  A
C2151      H2158   1.084       .  S
C2152      C2153   1.407       .  A
C2152      H2159   1.083       .  S
C2153      C2154   1.403       .  A
C2154      H2160   1.085       .  S
C2161      C2162   1.406       .  A
C2161      C2166   1.409       .  A
C2162      C2163   1.390       .  A
C2162      H2171   1.084       .  S
C2163      C2164   1.397   1_556  A
C2163      H2172   1.084       .  S
C2164      C2170   1.400       .  A
C2164      C2165   1.414   1_554  A
C2165      C2167   1.406   1_556  A
C2165      C2166   1.414       .  A
C2166      H2173   1.084       .  S
C2167      C2168   1.406       .  A
C2167      H2174   1.083   1_554  S
C2168      C2169   1.407       .  A
C2168      H2175   1.083       .  S
C2169      C2170   1.405       .  A
C2170      H2176   1.085       .  S
C2177      C2178   1.404       .  A
C2177      C2182   1.403       .  A
C2178      C2179   1.402       .  A
C2178      H2187   1.084       .  S
C2179      C2180   1.404       .  A
C2179      H2188   1.083       .  S
C2180      C2186   1.411       .  A
C2180      C2181   1.416       .  A
C2181      C2183   1.401       .  A
C2181      C2182   1.406       .  A
C2182      H2189   1.085       .  S
C2183      C2184   1.397       .  A
C2183      H2190   1.083       .  S
C2184      C2185   1.403       .  A
C2184      H2191   1.084       .  S
C2185      C2186   1.406       .  A
C2186      H2192   1.084       .  S
C2193      C2194   1.403       .  A
C2193      C2198   1.407       .  A
C2194      C2195   1.401       .  A
C2194      H2203   1.083       .  S
C2195      C2196   1.405       .  A
C2195      H2204   1.084       .  S
C2196      C2202   1.407       .  A
C2196      C2197   1.413       .  A
C2197      C2199   1.405       .  A
C2197      C2198   1.407       .  A
C2198      H2205   1.084       .  S
C2199      C2200   1.401       .  A
C2199      H2206   1.084       .  S
C2200      C2201   1.403       .  A
C2200      H2207   1.084       .  S
C2201      C2202   1.408       .  A
C2202      H2208   1.085       .  S
C2209      C2210   1.409       .  A
C2209      C2214   1.406       .  A
C2210      C2211   1.407       .  A
C2210      H2219   1.083       .  S
C2211      C2212   1.407   1_556  A
C2211      H2220   1.083       .  S
C2212      C2218   1.418       .  A
C2212      C2213   1.414   1_554  A
C2213      C2215   1.397   1_556  A
C2213      C2214   1.403       .  A
C2214      H2221   1.084       .  S
C2215      C2216   1.392       .  A
C2215      H2222   1.084       .  S
C2216      C2217   1.408       .  A
C2216      H2223   1.083       .  S
C2217      C2218   1.413       .  A
C2218      H2224   1.084       .  S
C2225      C2226   1.406       .  A
C2225      C2230   1.406       .  A
C2226      C2227   1.396       .  A
C2226      H2235   1.084       .  S
C2227      C2228   1.400       .  A
C2227      H2236   1.084       .  S
C2228      C2234   1.409       .  A
C2228      C2229   1.417       .  A
C2229      C2231   1.403       .  A
C2229      C2230   1.414       .  A
C2230      H2237   1.084       .  S
C2231      C2232   1.401       .  A
C2231      H2238   1.083       .  S
C2232      C2233   1.406       .  A
C2232      H2239   1.084       .  S
C2233      C2234   1.403       .  A
C2234      H2240   1.085       .  S
C2241      C2242   1.402       .  A
C2241      C2246   1.405       .  A
C2242      C2243   1.398       .  A
C2242      H2251   1.084       .  S
C2243      C2244   1.403       .  A
C2243      H2252   1.084       .  S
C2244      C2250   1.407       .  A
C2244      C2245   1.416       .  A
C2245      C2247   1.404       .  A
C2245      C2246   1.409       .  A
C2246      H2253   1.084       .  S
C2247      C2248   1.400       .  A
C2247      H2254   1.083       .  S
C2248      C2249   1.403       .  A
C2248      H2255   1.084       .  S
C2249      C2250   1.404       .  A
C2250      H2256   1.085       .  S
C2257      C2258   1.407       .  A
C2257      C2262   1.406       .  A
C2258      C2259   1.401       .  A
C2258      H2267   1.083       .  S
C2259      C2260   1.403       .  A
C2259      H2268   1.084       .  S
C2260      C2266   1.411       .  A
C2260      C2261   1.416       .  A
C2261      C2263   1.400       .  A
C2261      C2262   1.405       .  A
C2262      H2269   1.085       .  S
C2263      C2264   1.395       .  A
C2263      H2270   1.084       .  S
C2264      C2265   1.404       .  A
C2264      H2271   1.084       .  S
C2265      C2266   1.404       .  A
C2266      H2272   1.084       .  S
C2273      C2274   1.404       .  A
C2273      C2278   1.405       .  A
C2274      C2275   1.401       .  A
C2274      H2283   1.084       .  S
C2275      C2276   1.404       .  A
C2275      H2284   1.084       .  S
C2276      C2282   1.410       .  A
C2276      C2277   1.415       .  A
C2277      C2279   1.403       .  A
C2277      C2278   1.407       .  A
C2278      H2285   1.085       .  S
C2279      C2280   1.398       .  A
C2279      H2286   1.084       .  S
C2280      C2281   1.403       .  A
C2280      H2287   1.084       .  S
C2281      C2282   1.406       .  A
C2282      H2288   1.084       .  S
C2289      C2290   1.408       .  A
C2289      C2294   1.411       .  A
C2290      C2291   1.391       .  A
C2290      H2299   1.083       .  S
C2291      C2292   1.397       .  A
C2291      H2300   1.084       .  S
C2292      C2298   1.397       .  A
C2292      C2293   1.414       .  A
C2293      C2295   1.408       .  A
C2293      C2294   1.412       .  A
C2294      H2301   1.084       .  S
C2295      C2296   1.406       .  A
C2295      H2302   1.083       .  S
C2296      C2297   1.403       .  A
C2296      H2303   1.083       .  S
C2297      C2298   1.401       .  A
C2298      H2304   1.085       .  S
C2305      C2306   1.403       .  A
C2305      C2310   1.408       .  A
C2306      C2307   1.401       .  A
C2306      H2315   1.084       .  S
C2307      C2308   1.405       .  A
C2307      H2316   1.082       .  S
C2308      C2314   1.407       .  A
C2308      C2309   1.413       .  A
C2309      C2311   1.406       .  A
C2309      C2310   1.409       .  A
C2310      H2317   1.083       .  S
C2311      C2312   1.403       .  A
C2311      H2318   1.082       .  S
C2312      C2313   1.402       .  A
C2312      H2319   1.084       .  S
C2313      C2314   1.409       .  A
C2314      H2320   1.084       .  S
C2321      C2322   1.405       .  A
C2321      C2326   1.404       .  A
C2322      C2323   1.393       .  A
C2322      H2331   1.084       .  S
C2323      C2324   1.399       .  A
C2323      H2332   1.083       .  S
C2324      C2330   1.405       .  A
C2324      C2325   1.417       .  A
C2325      C2327   1.402       .  A
C2325      C2326   1.411       .  A
C2326      H2333   1.084       .  S
C2327      C2328   1.400       .  A
C2327      H2334   1.083       .  S
C2328      C2329   1.409       .  A
C2328      H2335   1.083       .  S
C2329      C2330   1.404       .  A
C2330      H2336   1.084       .  S
C2337      C2338   1.406       .  A
C2337      C2342   1.407       .  A
C2338      C2339   1.406       .  A
C2338      H2347   1.083       .  S
C2339      C2340   1.406       .  A
C2339      H2348   1.083       .  S
C2340      C2346   1.414       .  A
C2340      C2341   1.413       .  A
C2341      C2343   1.399       .  A
C2341      C2342   1.404       .  A
C2342      H2349   1.085       .  S
C2343      C2344   1.394       .  A
C2343      H2350   1.084       .  S
C2344      C2345   1.409       .  A
C2344      H2351   1.083       .  S
C2345      C2346   1.412       .  A
C2346      H2352   1.084       .  S
C2353      C2354   1.411       .  A
C2353      C2358   1.410       .  A
C2354      C2355   1.397       .  A
C2354      H2363   1.083       .  S
C2355      C2356   1.399       .  A
C2355      H2364   1.084       .  S
C2356      C2362   1.411       .  A
C2356      C2357   1.415       .  A
C2357      C2359   1.403       .  A
C2357      C2358   1.416       .  A
C2358      H2365   1.084       .  S
C2359      C2360   1.403       .  A
C2359      H2366   1.083       .  S
C2360      C2361   1.408       .  A
C2360      H2367   1.083       .  S
C2361      C2362   1.409       .  A
C2362      H2368   1.084       .  S
C2369      C2370   1.409       .  A
C2369      C2374   1.408       .  A
C2370      C2371   1.403       .  A
C2370      H2379   1.083       .  S
C2371      C2372   1.404       .  A
C2371      H2380   1.083       .  S
C2372      C2378   1.415       .  A
C2372      C2373   1.415       .  A
C2373      C2375   1.400       .  A
C2373      C2374   1.409       .  A
C2374      H2381   1.084       .  S
C2375      C2376   1.396       .  A
C2375      H2382   1.084       .  S
C2376      C2377   1.408       .  A
C2376      H2383   1.083       .  S
C2377      C2378   1.409       .  A
C2378      H2384   1.084       .  S
C2385      C2386   1.408       .  A
C2385      C2390   1.411       .  A
C2386      C2387   1.396       .  A
C2386      H2395   1.082       .  S
C2387      C2388   1.401       .  A
C2387      H2396   1.085       .  S
C2388      C2394   1.402       .  A
C2388      C2389   1.413       .  A
C2389      C2391   1.407       .  A
C2389      C2390   1.410       .  A
C2390      H2397   1.085       .  S
C2391      C2392   1.404       .  A
C2391      H2398   1.085       .  S
C2392      C2393   1.402       .  A
C2392      H2399   1.082       .  S
C2393      C2394   1.406       .  A
C2394      H2400   1.087       .  S
C2401      C2402   1.409       .  A
C2401      C2406   1.413       .  A
C2402      C2403   1.394       .  A
C2402      H2411   1.083       .  S
C2403      C2404   1.399       .  A
C2403      H2412   1.084       .  S
C2404      C2410   1.403       .  A
C2404      C2405   1.413       .  A
C2405      C2407   1.408       .  A
C2405      C2406   1.415       .  A
C2406      H2413   1.084       .  S
C2407      C2408   1.407       .  A
C2407      H2414   1.083       .  S
C2408      C2409   1.405       .  A
C2408      H2415   1.083       .  S
C2409      C2410   1.407       .  A
C2410      H2416   1.085       .  S
C2417      C2418   1.407       .  A
C2417      C2422   1.403       .  A
C2418      C2419   1.398       .  A
C2418      H2427   1.083       .  S
C2419      C2420   1.402       .  A
C2419      H2428   1.084       .  S
C2420      C2426   1.405       .  A
C2420      C2421   1.416       .  A
C2421      C2423   1.398       .  A
C2421      C2422   1.397       .  A
C2422      H2429   1.085       .  S
C2423      C2424   1.390       .  A
C2423      H2430   1.084       .  S
C2424      C2425   1.405       .  A
C2424      H2431   1.084       .  S
C2425      C2426   1.402       .  A
C2426      H2432   1.084       .  S
C2433      C2434   1.409       .  A
C2433      C2438   1.404       .  A
C2434      C2435   1.397       .  A
C2434      H2443   1.083       .  S
C2435      C2436   1.400       .  A
C2435      H2444   1.084       .  S
C2436      C2442   1.408       .  A
C2436      C2437   1.417       .  A
C2437      C2439   1.399       .  A
C2437      C2438   1.405       .  A
C2438      H2445   1.085       .  S
C2439      C2440   1.394       .  A
C2439      H2446   1.084       .  S
C2440      C2441   1.406       .  A
C2440      H2447   1.084       .  S
C2441      C2442   1.401       .  A
C2442      H2448   1.084       .  S
C2449      C2450   1.406       .  A
C2449      C2454   1.409       .  A
C2450      C2451   1.393       .  A
C2450      H2459   1.084       .  S
C2451      C2452   1.399   1_455  A
C2451      H2460   1.084   1_455  S
C2452      C2458   1.404       .  A
C2452      C2453   1.415   1_655  A
C2453      C2455   1.405   1_455  A
C2453      C2454   1.415       .  A
C2454      H2461   1.084       .  S
C2455      C2456   1.404       .  A
C2455      H2462   1.083       .  S
C2456      C2457   1.409       .  A
C2456      H2463   1.083       .  S
C2457      C2458   1.406       .  A
C2458      H2464   1.084       .  S
C2465      C2466   1.406       .  A
C2465      C2470   1.406       .  A
C2466      C2467   1.399       .  A
C2466      H2475   1.084       .  S
C2467      C2468   1.402       .  A
C2467      H2476   1.083       .  S
C2468      C2474   1.413       .  A
C2468      C2469   1.417       .  A
C2469      C2471   1.402       .  A
C2469      C2470   1.414       .  A
C2470      H2477   1.084       .  S
C2471      C2472   1.400       .  A
C2471      H2478   1.083       .  S
C2472      C2473   1.406       .  A
C2472      H2479   1.084       .  S
C2473      C2474   1.405       .  A
C2474      H2480   1.084       .  S
C2481      C2482   1.404       .  A
C2481      C2486   1.405       .  A
C2482      C2483   1.396       .  A
C2482      H2491   1.084       .  S
C2483      C2484   1.401       .  A
C2483      H2492   1.084       .  S
C2484      C2490   1.405       .  A
C2484      C2485   1.416       .  A
C2485      C2487   1.405       .  A
C2485      C2486   1.409       .  A
C2486      H2493   1.085       .  S
C2487      C2488   1.401       .  A
C2487      H2494   1.084       .  S
C2488      C2489   1.402       .  A
C2488      H2495   1.083       .  S
C2489      C2490   1.403       .  A
C2490      H2496   1.085       .  S
C2497      C2498   1.409       .  A
C2497      C2502   1.409       .  A
C2498      C2499   1.394       .  A
C2498      H2507   1.083       .  S
C2499      C2500   1.398   1_556  A
C2499      H2508   1.084   1_556  S
C2500      C2506   1.405       .  A
C2500      C2501   1.415   1_554  A
C2501      C2503   1.403   1_556  A
C2501      C2502   1.412       .  A
C2502      H2509   1.084       .  S
C2503      C2504   1.402       .  A
C2503      H2510   1.084       .  S
C2504      C2505   1.408       .  A
C2504      H2511   1.083       .  S
C2505      C2506   1.406       .  A
C2506      H2512   1.084       .  S
C2513      C2514   1.406       .  A
C2513      C2518   1.402       .  A
C2514      C2515   1.408       .  A
C2514      H2523   1.083       .  S
C2515      C2516   1.408   1_655  A
C2515      H2524   1.083   1_655  S
C2516      C2522   1.419       .  A
C2516      C2517   1.415   1_455  A
C2517      C2519   1.395   1_655  A
C2517      C2518   1.404       .  A
C2518      H2525   1.085       .  S
C2519      C2520   1.391       .  A
C2519      H2526   1.084       .  S
C2520      C2521   1.411       .  A
C2520      H2527   1.083       .  S
C2521      C2522   1.413       .  A
C2522      H2528   1.084       .  S
C2529      C2530   1.405       .  A
C2529      C2534   1.410       .  A
C2530      C2531   1.397       .  A
C2530      H2539   1.084       .  S
C2531      C2532   1.402       .  A
C2531      H2540   1.084       .  S
C2532      C2538   1.407       .  A
C2532      C2533   1.415       .  A
C2533      C2535   1.407       .  A
C2533      C2534   1.415       .  A
C2534      H2541   1.084       .  S
C2535      C2536   1.406       .  A
C2535      H2542   1.083       .  S
C2536      C2537   1.403       .  A
C2536      H2543   1.083       .  S
C2537      C2538   1.405       .  A
C2538      H2544   1.085       .  S
C2545      C2546   1.407       .  A
C2545      C2550   1.406       .  A
C2546      C2547   1.400       .  A
C2546      H2555   1.084       .  S
C2547      C2548   1.402       .  A
C2547      H2556   1.084       .  S
C2548      C2554   1.414       .  A
C2548      C2549   1.417       .  A
C2549      C2551   1.402       .  A
C2549      C2550   1.413       .  A
C2550      H2557   1.085       .  S
C2551      C2552   1.399       .  A
C2551      H2558   1.084       .  S
C2552      C2553   1.406       .  A
C2552      H2559   1.084       .  S
C2553      C2554   1.406       .  A
C2554      H2560   1.085       .  S
C2561      C2562   1.404       .  A
C2561      C2566   1.407       .  A
C2562      C2563   1.391       .  A
C2562      H2571   1.083       .  S
C2563      C2564   1.399       .  A
C2563      H2572   1.084       .  S
C2564      C2570   1.392       .  A
C2564      C2565   1.413       .  A
C2565      C2567   1.405       .  A
C2565      C2566   1.398       .  A
C2566      H2573   1.084       .  S
C2567      C2568   1.398       .  A
C2567      H2574   1.084       .  S
C2568      C2569   1.401       .  A
C2568      H2575   1.083       .  S
C2569      C2570   1.400       .  A
C2570      H2576   1.085       .  S
C2577      C2578   1.410       .  A
C2577      C2582   1.413       .  A
C2578      C2579   1.395       .  A
C2578      H2587   1.083       .  S
C2579      C2580   1.398   1_554  A
C2579      H2588   1.084       .  S
C2580      C2586   1.409       .  A
C2580      C2581   1.415   1_556  A
C2581      C2583   1.405   1_554  A
C2581      C2582   1.418       .  A
C2582      H2589   1.084       .  S
C2583      C2584   1.406       .  A
C2583      H2590   1.083   1_556  S
C2584      C2585   1.409       .  A
C2584      H2591   1.083       .  S
C2585      C2586   1.407       .  A
C2586      H2592   1.084       .  S
C2593      C2594   1.403       .  A
C2593      C2598   1.402       .  A
C2594      C2595   1.403       .  A
C2594      H2603   1.083       .  S
C2595      C2596   1.406       .  A
C2595      H2604   1.083       .  S
C2596      C2602   1.408       .  A
C2596      C2597   1.414       .  A
C2597      C2599   1.399       .  A
C2597      C2598   1.398       .  A
C2598      H2605   1.085       .  S
C2599      C2600   1.392       .  A
C2599      H2606   1.084       .  S
C2600      C2601   1.406       .  A
C2600      H2607   1.083       .  S
C2601      C2602   1.409       .  A
C2602      H2608   1.084       .  S
C2609      C2610   1.409       .  A
C2609      C2614   1.406       .  A
C2610      C2611   1.401       .  A
C2610      H2619   1.083       .  S
C2611      C2612   1.403       .  A
C2611      H2620   1.084       .  S
C2612      C2618   1.413       .  A
C2612      C2613   1.416       .  A
C2613      C2615   1.400       .  A
C2613      C2614   1.407       .  A
C2614      H2621   1.085       .  S
C2615      C2616   1.396       .  A
C2615      H2622   1.084       .  S
C2616      C2617   1.405       .  A
C2616      H2623   1.084       .  S
C2617      C2618   1.406       .  A
C2618      H2624   1.084       .  S
C2625      C2626   1.403       .  A
C2625      C2630   1.405       .  A
C2626      C2627   1.401       .  A
C2626      H2635   1.083       .  S
C2627      C2628   1.405       .  A
C2627      H2636   1.083       .  S
C2628      C2634   1.411       .  A
C2628      C2629   1.415       .  A
C2629      C2631   1.402       .  A
C2629      C2630   1.407       .  A
C2630      H2637   1.085       .  S
C2631      C2632   1.397       .  A
C2631      H2638   1.084       .  S
C2632      C2633   1.403       .  A
C2632      H2639   1.084       .  S
C2633      C2634   1.406       .  A
C2634      H2640   1.084       .  S
C2641      C2642   1.402       .  A
C2641      C2646   1.407       .  A
C2642      C2643   1.401       .  A
C2642      H2651   1.083       .  S
C2643      C2644   1.405       .  A
C2643      H2652   1.083       .  S
C2644      C2650   1.407       .  A
C2644      C2645   1.413       .  A
C2645      C2647   1.404       .  A
C2645      C2646   1.405       .  A
C2646      H2653   1.085       .  S
C2647      C2648   1.400       .  A
C2647      H2654   1.084       .  S
C2648      C2649   1.402       .  A
C2648      H2655   1.084       .  S
C2649      C2650   1.408       .  A
C2650      H2656   1.085       .  S
C2657      C2658   1.409       .  A
C2657      C2662   1.410       .  A
C2658      C2659   1.394       .  A
C2658      H2667   1.083       .  S
C2659      C2660   1.398       .  A
C2659      H2668   1.084       .  S
C2660      C2666   1.407       .  A
C2660      C2661   1.415       .  A
C2661      C2663   1.405       .  A
C2661      C2662   1.416       .  A
C2662      H2669   1.084       .  S
C2663      C2664   1.405       .  A
C2663      H2670   1.084       .  S
C2664      C2665   1.408       .  A
C2664      H2671   1.083       .  S
C2665      C2666   1.406       .  A
C2666      H2672   1.085       .  S
C2673      C2674   1.409       .  A
C2673      C2678   1.413       .  A
C2674      C2675   1.394       .  A
C2674      H2683   1.083       .  S
C2675      C2676   1.399       .  A
C2675      H2684   1.084       .  S
C2676      C2682   1.406       .  A
C2676      C2677   1.414       .  A
C2677      C2679   1.407       .  A
C2677      C2678   1.418       .  A
C2678      H2685   1.084       .  S
C2679      C2680   1.407       .  A
C2679      H2686   1.083       .  S
C2680      C2681   1.408       .  A
C2680      H2687   1.083       .  S
C2681      C2682   1.409       .  A
C2682      H2688   1.084       .  S
C2689      C2690   1.408       .  A
C2689      C2694   1.410       .  A
C2690      C2691   1.407       .  A
C2690      H2699   1.083       .  S
C2691      C2692   1.407       .  A
C2691      H2700   1.083       .  S
C2692      C2698   1.418       .  A
C2692      C2693   1.413       .  A
C2693      C2695   1.401       .  A
C2693      C2694   1.409       .  A
C2694      H2701   1.084       .  S
C2695      C2696   1.398       .  A
C2695      H2702   1.084       .  S
C2696      C2697   1.408       .  A
C2696      H2703   1.083       .  S
C2697      C2698   1.415       .  A
C2698      H2704   1.084       .  S
C2705      C2706   1.407       .  A
C2705      C2710   1.409       .  A
C2706      C2707   1.394       .  A
C2706      H2715   1.083       .  S
C2707      C2708   1.400       .  A
C2707      H2716   1.084       .  S
C2708      C2714   1.399       .  A
C2708      C2709   1.414       .  A
C2709      C2711   1.406       .  A
C2709      C2710   1.407       .  A
C2710      H2717   1.084       .  S
C2711      C2712   1.402       .  A
C2711      H2718   1.084       .  S
C2712      C2713   1.402       .  A
C2712      H2719   1.083       .  S
C2713      C2714   1.403       .  A
C2714      H2720   1.086       .  S
C2721      C2722   1.408       .  A
C2721      C2726   1.406       .  A
C2722      C2723   1.411       .  A
C2722      H2731   1.083       .  S
C2723      C2724   1.410       .  A
C2723      H2732   1.083       .  S
C2724      C2730   1.420       .  A
C2724      C2725   1.413       .  A
C2725      C2727   1.396       .  A
C2725      C2726   1.399       .  A
C2726      H2733   1.085       .  S
C2727      C2728   1.388       .  A
C2727      H2734   1.084       .  S
C2728      C2729   1.408       .  A
C2728      H2735   1.083       .  S
C2729      C2730   1.414       .  A
C2730      H2736   1.084       .  S
C2737      C2738   1.409       .  A
C2737      C2742   1.402       .  A
C2738      C2739   1.397       .  A
C2738      H2747   1.083       .  S
C2739      C2740   1.400       .  A
C2739      H2748   1.084       .  S
C2740      C2746   1.408       .  A
C2740      C2741   1.418       .  A
C2741      C2743   1.397       .  A
C2741      C2742   1.402       .  A
C2742      H2749   1.085       .  S
C2743      C2744   1.391       .  A
C2743      H2750   1.084       .  S
C2744      C2745   1.407       .  A
C2744      H2751   1.084       .  S
C2745      C2746   1.402       .  A
C2746      H2752   1.084       .  S
C2753      C2754   1.402       .  A
C2753      C2758   1.399       .  A
C2754      C2755   1.403       .  A
C2754      H2763   1.083       .  S
C2755      C2756   1.407       .  A
C2755      H2764   1.083       .  S
C2756      C2762   1.407       .  A
C2756      C2757   1.414       .  A
C2757      C2759   1.397       .  A
C2757      C2758   1.396       .  A
C2758      H2765   1.085       .  S
C2759      C2760   1.390       .  A
C2759      H2766   1.084       .  S
C2760      C2761   1.407       .  A
C2760      H2767   1.083       .  S
C2761      C2762   1.409       .  A
C2762      H2768   1.084       .  S
C2769      C2770   1.407       .  A
C2769      C2774   1.406       .  A
C2770      C2771   1.405       .  A
C2770      H2779   1.083       .  S
C2771      C2772   1.406   1_556  A
C2771      H2780   1.083       .  S
C2772      C2778   1.413       .  A
C2772      C2773   1.414   1_554  A
C2773      C2775   1.399   1_556  A
C2773      C2774   1.401       .  A
C2774      H2781   1.084       .  S
C2775      C2776   1.392       .  A
C2775      H2782   1.084       .  S
C2776      C2777   1.404       .  A
C2776      H2783   1.084       .  S
C2777      C2778   1.409       .  A
C2778      H2784   1.084       .  S
C2785      C2786   1.403       .  A
C2785      C2790   1.408       .  A
C2786      C2787   1.397       .  A
C2786      H2795   1.082       .  S
C2787      C2788   1.402       .  A
C2787      H2796   1.084       .  S
C2788      C2794   1.409       .  A
C2788      C2789   1.416       .  A
C2789      C2791   1.406       .  A
C2789      C2790   1.416       .  A
C2790      H2797   1.084       .  S
C2791      C2792   1.404       .  A
C2791      H2798   1.083       .  S
C2792      C2793   1.404       .  A
C2792      H2799   1.083       .  S
C2793      C2794   1.406       .  A
C2794      H2800   1.085       .  S
C2801      C2802   1.404       .  A
C2801      C2806   1.408       .  A
C2802      C2803   1.401       .  A
C2802      H2811   1.083       .  S
C2803      C2804   1.405       .  A
C2803      H2812   1.084       .  S
C2804      C2810   1.408       .  A
C2804      C2805   1.414       .  A
C2805      C2807   1.404       .  A
C2805      C2806   1.407       .  A
C2806      H2813   1.085       .  S
C2807      C2808   1.400       .  A
C2807      H2814   1.084       .  S
C2808      C2809   1.403       .  A
C2808      H2815   1.084       .  S
C2809      C2810   1.408       .  A
C2810      H2816   1.085       .  S
C2817      C2818   1.409       .  A
C2817      C2822   1.408       .  A
C2818      C2819   1.406       .  A
C2818      H2827   1.083       .  S
C2819      C2820   1.406   1_556  A
C2819      H2828   1.083   1_556  S
C2820      C2826   1.417       .  A
C2820      C2821   1.414   1_554  A
C2821      C2823   1.399   1_556  A
C2821      C2822   1.407       .  A
C2822      H2829   1.084       .  S
C2823      C2824   1.395       .  A
C2823      H2830   1.084       .  S
C2824      C2825   1.409       .  A
C2824      H2831   1.083       .  S
C2825      C2826   1.412       .  A
C2826      H2832   1.084       .  S
C2833      C2834   1.405       .  A
C2833      C2838   1.403       .  A
C2834      C2835   1.405       .  A
C2834      H2843   1.083       .  S
C2835      C2836   1.407   1_565  A
C2835      H2844   1.083   1_565  S
C2836      C2842   1.412       .  A
C2836      C2837   1.414   1_545  A
C2837      C2839   1.398   1_565  A
C2837      C2838   1.401       .  A
C2838      H2845   1.085       .  S
C2839      C2840   1.393       .  A
C2839      H2846   1.084   1_545  S
C2840      C2841   1.407       .  A
C2840      H2847   1.083       .  S
C2841      C2842   1.411       .  A
C2842      H2848   1.084       .  S
C2849      C2850   1.407       .  A
C2849      C2854   1.402       .  A
C2850      C2851   1.400       .  A
C2850      H2859   1.083       .  S
C2851      C2852   1.403       .  A
C2851      H2860   1.083       .  S
C2852      C2858   1.407       .  A
C2852      C2853   1.416       .  A
C2853      C2855   1.397       .  A
C2853      C2854   1.396       .  A
C2854      H2861   1.083       .  S
C2855      C2856   1.389       .  A
C2855      H2862   1.084       .  S
C2856      C2857   1.404       .  A
C2856      H2863   1.084       .  S
C2857      C2858   1.403       .  A
C2858      H2864   1.084       .  S
C2865      C2866   1.407       .  A
C2865      C2870   1.406       .  A
C2866      C2867   1.396       .  A
C2866      H2875   1.084       .  S
C2867      C2868   1.400       .  A
C2867      H2876   1.084       .  S
C2868      C2874   1.409       .  A
C2868      C2869   1.417       .  A
C2869      C2871   1.403       .  A
C2869      C2870   1.414       .  A
C2870      H2877   1.084       .  S
C2871      C2872   1.401       .  A
C2871      H2878   1.083       .  S
C2872      C2873   1.405       .  A
C2872      H2879   1.084       .  S
C2873      C2874   1.403       .  A
C2874      H2880   1.085       .  S
C2881      C2882   1.403       .  A
C2881      C2886   1.405       .  A
C2882      C2883   1.402       .  A
C2882      H2891   1.083       .  S
C2883      C2884   1.404       .  A
C2883      H2892   1.084       .  S
C2884      C2890   1.411       .  A
C2884      C2885   1.416       .  A
C2885      C2887   1.402       .  A
C2885      C2886   1.407       .  A
C2886      H2893   1.085       .  S
C2887      C2888   1.398       .  A
C2887      H2894   1.084       .  S
C2888      C2889   1.403       .  A
C2888      H2895   1.084       .  S
C2889      C2890   1.405       .  A
C2890      H2896   1.084       .  S
C2897      C2898   1.409       .  A
C2897      C2902   1.401       .  A
C2898      C2899   1.406       .  A
C2898      H2907   1.083       .  S
C2899      C2900   1.406   1_545  A
C2899      H2908   1.084       .  S
C2900      C2906   1.417       .  A
C2900      C2901   1.416   1_565  A
C2901      C2903   1.394   1_545  A
C2901      C2902   1.400       .  A
C2902      H2909   1.085       .  S
C2903      C2904   1.388       .  A
C2903      H2910   1.084   1_565  S
C2904      C2905   1.409       .  A
C2904      H2911   1.083       .  S
C2905      C2906   1.410       .  A
C2906      H2912   1.084       .  S
C2913      C2914   1.402       .  A
C2913      C2918   1.405       .  A
C2914      C2915   1.398       .  A
C2914      H2923   1.084       .  S
C2915      C2916   1.403       .  A
C2915      H2924   1.084       .  S
C2916      C2922   1.405       .  A
C2916      C2917   1.416       .  A
C2917      C2919   1.404       .  A
C2917      C2918   1.408       .  A
C2918      H2925   1.085       .  S
C2919      C2920   1.400       .  A
C2919      H2926   1.084       .  S
C2920      C2921   1.403       .  A
C2920      H2927   1.084       .  S
C2921      C2922   1.403       .  A
C2922      H2928   1.085       .  S
C2929      C2930   1.404       .  A
C2929      C2934   1.402       .  A
C2930      C2931   1.397       .  A
C2930      H2939   1.084       .  S
C2931      C2932   1.401       .  A
C2931      H2940   1.084       .  S
C2932      C2938   1.407       .  A
C2932      C2933   1.418       .  A
C2933      C2935   1.401       .  A
C2933      C2934   1.406       .  A
C2934      H2941   1.085       .  S
C2935      C2936   1.396       .  A
C2935      H2942   1.084       .  S
C2936      C2937   1.404       .  A
C2936      H2943   1.084       .  S
C2937      C2938   1.402       .  A
C2938      H2944   1.085       .  S
C2945      C2946   1.405       .  A
C2945      C2950   1.407       .  A
C2946      C2947   1.394       .  A
C2946      H2955   1.084       .  S
C2947      C2948   1.400       .  A
C2947      H2956   1.084       .  S
C2948      C2954   1.399       .  A
C2948      C2949   1.414       .  A
C2949      C2951   1.405       .  A
C2949      C2950   1.405       .  A
C2950      H2957   1.084       .  S
C2951      C2952   1.401       .  A
C2951      H2958   1.084       .  S
C2952      C2953   1.402       .  A
C2952      H2959   1.083       .  S
C2953      C2954   1.401       .  A
C2954      H2960   1.085       .  S
C2961      C2962   1.407       .  A
C2961      C2966   1.412       .  A
C2962      C2963   1.393       .  A
C2962      H2971   1.083       .  S
C2963      C2964   1.398       .  A
C2963      H2972   1.084       .  S
C2964      C2970   1.402       .  A
C2964      C2965   1.414       .  A
C2965      C2967   1.408       .  A
C2965      C2966   1.414       .  A
C2966      H2973   1.084       .  S
C2967      C2968   1.406       .  A
C2967      H2974   1.084       .  S
C2968      C2969   1.404       .  A
C2968      H2975   1.083       .  S
C2969      C2970   1.402       .  A
C2970      H2976   1.085       .  S
C2977      C2978   1.407       .  A
C2977      C2982   1.404       .  A
C2978      C2979   1.400       .  A
C2978      H2987   1.083       .  S
C2979      C2980   1.402       .  A
C2979      H2988   1.084       .  S
C2980      C2986   1.409       .  A
C2980      C2981   1.416       .  A
C2981      C2983   1.398       .  A
C2981      C2982   1.401       .  A
C2982      H2989   1.085       .  S
C2983      C2984   1.391       .  A
C2983      H2990   1.084       .  S
C2984      C2985   1.406       .  A
C2984      H2991   1.084       .  S
C2985      C2986   1.404       .  A
C2986      H2992   1.084       .  S
C2993      C2994   1.408       .  A
C2993      C2998   1.410       .  A
C2994      C2995   1.407       .  A
C2994      H3003   1.083       .  S
C2995      C2996   1.406       .  A
C2995      H3004   1.083       .  S
C2996      C3002   1.418       .  A
C2996      C2997   1.414       .  A
C2997      C2999   1.401       .  A
C2997      C2998   1.408       .  A
C2998      H3005   1.084       .  S
C2999      C3000   1.396       .  A
C2999      H3006   1.084       .  S
C3000      C3001   1.406       .  A
C3000      H3007   1.084       .  S
C3001      C3002   1.411       .  A
C3002      H3008   1.084       .  S
C3009      C3010   1.406       .  A
C3009      C3014   1.411       .  A
C3010      C3011   1.392       .  A
C3010      H3019   1.084       .  S
C3011      C3012   1.399       .  A
C3011      H3020   1.084       .  S
C3012      C3018   1.401       .  A
C3012      C3013   1.413       .  A
C3013      C3015   1.407       .  A
C3013      C3014   1.416       .  A
C3014      H3021   1.084       .  S
C3015      C3016   1.407       .  A
C3015      H3022   1.083       .  S
C3016      C3017   1.407       .  A
C3016      H3023   1.083       .  S
C3017      C3018   1.408       .  A
C3018      H3024   1.084       .  S
C3025      C3026   1.406       .  A
C3025      C3030   1.408       .  A
C3026      C3027   1.392       .  A
C3026      H3035   1.084       .  S
C3027      C3028   1.399       .  A
C3027      H3036   1.084       .  S
C3028      C3034   1.400       .  A
C3028      C3029   1.414       .  A
C3029      C3031   1.406       .  A
C3029      C3030   1.411       .  A
C3030      H3037   1.084       .  S
C3031      C3032   1.404       .  A
C3031      H3038   1.084       .  S
C3032      C3033   1.406       .  A
C3032      H3039   1.083       .  S
C3033      C3034   1.407       .  A
C3034      H3040   1.085       .  S
C3041      C3042   1.399       .  A
C3041      C3046   1.398       .  A
C3042      C3043   1.400       .  A
C3042      H3051   1.083       .  S
C3043      C3044   1.406       .  A
C3043      H3052   1.083       .  S
C3044      C3050   1.399       .  A
C3044      C3045   1.413       .  A
C3045      C3047   1.399       .  A
C3045      C3046   1.391       .  A
C3046      H3053   1.081       .  S
C3047      C3048   1.391       .  A
C3047      H3054   1.084       .  S
C3048      C3049   1.404       .  A
C3048      H3055   1.084       .  S
C3049      C3050   1.407       .  A
C3050      H3056   1.084       .  S
C3057      C3058   1.408       .  A
C3057      C3062   1.408       .  A
C3058      C3059   1.405       .  A
C3058      H3067   1.083       .  S
C3059      C3060   1.405       .  A
C3059      H3068   1.083       .  S
C3060      C3066   1.415       .  A
C3060      C3061   1.414       .  A
C3061      C3063   1.400       .  A
C3061      C3062   1.407       .  A
C3062      H3069   1.084       .  S
C3063      C3064   1.396       .  A
C3063      H3070   1.084       .  S
C3064      C3065   1.408       .  A
C3064      H3071   1.083       .  S
C3065      C3066   1.411       .  A
C3066      H3072   1.084       .  S
C3073      C3074   1.409       .  A
C3073      C3078   1.405       .  A
C3074      C3075   1.401       .  A
C3074      H3083   1.083       .  S
C3075      C3076   1.402       .  A
C3075      H3084   1.084       .  S
C3076      C3082   1.414       .  A
C3076      C3077   1.416       .  A
C3077      C3079   1.398       .  A
C3077      C3078   1.407       .  A
C3078      H3085   1.084       .  S
C3079      C3080   1.394       .  A
C3079      H3086   1.084       .  S
C3080      C3081   1.407       .  A
C3080      H3087   1.084       .  S
C3081      C3082   1.406       .  A
C3082      H3088   1.084       .  S
C3089      C3090   1.408       .  A
C3089      C3094   1.411       .  A
C3090      C3091   1.394       .  A
C3090      H3099   1.083       .  S
C3091      C3092   1.399       .  A
C3091      H3100   1.084       .  S
C3092      C3098   1.401       .  A
C3092      C3093   1.414       .  A
C3093      C3095   1.407       .  A
C3093      C3094   1.411       .  A
C3094      H3101   1.084       .  S
C3095      C3096   1.405       .  A
C3095      H3102   1.084       .  S
C3096      C3097   1.403       .  A
C3096      H3103   1.083       .  S
C3097      C3098   1.403       .  A
C3098      H3104   1.085       .  S
C3105      C3106   1.405       .  A
C3105      C3110   1.402       .  A
C3106      C3107   1.393       .  A
C3106      H3115   1.084       .  S
C3107      C3108   1.399       .  A
C3107      H3116   1.084       .  S
C3108      C3114   1.402       .  A
C3108      C3109   1.417       .  A
C3109      C3111   1.401       .  A
C3109      C3110   1.408       .  A
C3110      H3117   1.084       .  S
C3111      C3112   1.399       .  A
C3111      H3118   1.084       .  S
C3112      C3113   1.408       .  A
C3112      H3119   1.083       .  S
C3113      C3114   1.404       .  A
C3114      H3120   1.085       .  S
C3121      C3122   1.409       .  A
C3121      C3126   1.411       .  A
C3122      C3123   1.392       .  A
C3122      H3131   1.083       .  S
C3123      C3124   1.397   1_655  A
C3123      H3132   1.084       .  S
C3124      C3130   1.402       .  A
C3124      C3125   1.414   1_455  A
C3125      C3127   1.407   1_655  A
C3125      C3126   1.415       .  A
C3126      H3133   1.084       .  S
C3127      C3128   1.406       .  A
C3127      H3134   1.083       .  S
C3128      C3129   1.407       .  A
C3128      H3135   1.083       .  S
C3129      C3130   1.405       .  A
C3130      H3136   1.085       .  S
C3137      C3138   1.409       .  A
C3137      C3142   1.410       .  A
C3138      C3139   1.407       .  A
C3138      H3147   1.083       .  S
C3139      C3140   1.407   1_565  A
C3139      H3148   1.083       .  S
C3140      C3146   1.419       .  A
C3140      C3141   1.413   1_545  A
C3141      C3143   1.400   1_565  A
C3141      C3142   1.409       .  A
C3142      H3149   1.084       .  S
C3143      C3144   1.397       .  A
C3143      H3150   1.084       .  S
C3144      C3145   1.410       .  A
C3144      H3151   1.083       .  S
C3145      C3146   1.414       .  A
C3146      H3152   1.084       .  S
C3153      C3154   1.404       .  A
C3153      C3158   1.407       .  A
C3154      C3155   1.403       .  A
C3154      H3163   1.083       .  S
C3155      C3156   1.406       .  A
C3155      H3164   1.084       .  S
C3156      C3162   1.410       .  A
C3156      C3157   1.414       .  A
C3157      C3159   1.403       .  A
C3157      C3158   1.405       .  A
C3158      H3165   1.085       .  S
C3159      C3160   1.397       .  A
C3159      H3166   1.084       .  S
C3160      C3161   1.401       .  A
C3160      H3167   1.084       .  S
C3161      C3162   1.407       .  A
C3162      H3168   1.085       .  S
C3169      C3170   1.405       .  A
C3169      C3174   1.406       .  A
C3170      C3171   1.406       .  A
C3170      H3179   1.083       .  S
C3171      C3172   1.406       .  A
C3171      H3180   1.084       .  S
C3172      C3178   1.418       .  A
C3172      C3173   1.416       .  A
C3173      C3175   1.400       .  A
C3173      C3174   1.408       .  A
C3174      H3181   1.085       .  S
C3175      C3176   1.396       .  A
C3175      H3182   1.084       .  S
C3176      C3177   1.406       .  A
C3176      H3183   1.081       .  S
C3177      C3178   1.410       .  A
C3178      H3184   1.084       .  S
C3185      C3186   1.407       .  A
C3185      C3190   1.411       .  A
C3186      C3187   1.396   1_556  A
C3186      H3195   1.083       .  S
C3187      C3188   1.401       .  A
C3187      H3196   1.084       .  S
C3188      C3194   1.404       .  A
C3188      C3189   1.413       .  A
C3189      C3191   1.406       .  A
C3189      C3190   1.412   1_554  A
C3190      H3197   1.084       .  S
C3191      C3192   1.404       .  A
C3191      H3198   1.083       .  S
C3192      C3193   1.406       .  A
C3192      H3199   1.083       .  S
C3193      C3194   1.408       .  A
C3194      H3200   1.084       .  S
C3201      C3202   1.409       .  A
C3201      C3206   1.408       .  A
C3202      C3203   1.406       .  A
C3202      H3211   1.083       .  S
C3203      C3204   1.406   1_565  A
C3203      H3212   1.083       .  S
C3204      C3210   1.418       .  A
C3204      C3205   1.415   1_545  A
C3205      C3207   1.400   1_565  A
C3205      C3206   1.408       .  A
C3206      H3213   1.084       .  S
C3207      C3208   1.396       .  A
C3207      H3214   1.084       .  S
C3208      C3209   1.405       .  A
C3208      H3215   1.084       .  S
C3209      C3210   1.410       .  A
C3210      H3216   1.084       .  S
C3217      C3218   1.403       .  A
C3217      C3222   1.408       .  A
C3218      C3219   1.401       .  A
C3218      H3227   1.084       .  S
C3219      C3220   1.404       .  A
C3219      H3228   1.084       .  S
C3220      C3226   1.408       .  A
C3220      C3221   1.414       .  A
C3221      C3223   1.405       .  A
C3221      C3222   1.410       .  A
C3222      H3229   1.085       .  S
C3223      C3224   1.402       .  A
C3223      H3230   1.084       .  S
C3224      C3225   1.403       .  A
C3224      H3231   1.083       .  S
C3225      C3226   1.408       .  A
C3226      H3232   1.085       .  S
C3233      C3234   1.403       .  A
C3233      C3238   1.407       .  A
C3234      C3235   1.400       .  A
C3234      H3243   1.084       .  S
C3235      C3236   1.403       .  A
C3235      H3244   1.084       .  S
C3236      C3242   1.410       .  A
C3236      C3237   1.415       .  A
C3237      C3239   1.404       .  A
C3237      C3238   1.410       .  A
C3238      H3245   1.085       .  S
C3239      C3240   1.401       .  A
C3239      H3246   1.084       .  S
C3240      C3241   1.403       .  A
C3240      H3247   1.084       .  S
C3241      C3242   1.406       .  A
C3242      H3248   1.085       .  S
C3249      C3250   1.404       .  A
C3249      C3254   1.405       .  A
C3250      C3251   1.387       .  A
C3250      H3259   1.084       .  S
C3251      C3252   1.396       .  A
C3251      H3260   1.084       .  S
C3252      C3258   1.395       .  A
C3252      C3253   1.416       .  A
C3253      C3255   1.405       .  A
C3253      C3254   1.410       .  A
C3254      H3261   1.084       .  S
C3255      C3256   1.403       .  A
C3255      H3262   1.084       .  S
C3256      C3257   1.406       .  A
C3256      H3263   1.083       .  S
C3257      C3258   1.401       .  A
C3258      H3264   1.085       .  S
C3265      C3266   1.406       .  A
C3265      C3270   1.404       .  A
C3266      C3267   1.406       .  A
C3266      H3275   1.083       .  S
C3267      C3268   1.407   1_556  A
C3267      H3276   1.084       .  S
C3268      C3274   1.415       .  A
C3268      C3269   1.414   1_554  A
C3269      C3271   1.397   1_556  A
C3269      C3270   1.400       .  A
C3270      H3277   1.085       .  S
C3271      C3272   1.391       .  A
C3271      H3278   1.084   1_554  S
C3272      C3273   1.408       .  A
C3272      H3279   1.083       .  S
C3273      C3274   1.412       .  A
C3274      H3280   1.084       .  S
C3281      C3282   1.408       .  A
C3281      C3286   1.404       .  A
C3282      C3283   1.399       .  A
C3282      H3291   1.083       .  S
C3283      C3284   1.401   1_655  A
C3283      H3292   1.084       .  S
C3284      C3290   1.410       .  A
C3284      C3285   1.417   1_455  A
C3285      C3287   1.399   1_655  A
C3285      C3286   1.404       .  A
C3286      H3293   1.085       .  S
C3287      C3288   1.393       .  A
C3287      H3294   1.084       .  S
C3288      C3289   1.405       .  A
C3288      H3295   1.084       .  S
C3289      C3290   1.403       .  A
C3290      H3296   1.084       .  S
C3297      C3298   1.404       .  A
C3297      C3302   1.403       .  A
C3298      C3299   1.394       .  A
C3298      H3307   1.084       .  S
C3299      C3300   1.400       .  A
C3299      H3308   1.084       .  S
C3300      C3306   1.403       .  A
C3300      C3301   1.416       .  A
C3301      C3303   1.402       .  A
C3301      C3302   1.408       .  A
C3302      H3309   1.084       .  S
C3303      C3304   1.400       .  A
C3303      H3310   1.084       .  S
C3304      C3305   1.407       .  A
C3304      H3311   1.083       .  S
C3305      C3306   1.406       .  A
C3306      H3312   1.085       .  S
C3313      C3314   1.408       .  A
C3313      C3318   1.405       .  A
C3314      C3315   1.395       .  A
C3314      H3323   1.083       .  S
C3315      C3316   1.400       .  A
C3315      H3324   1.084       .  S
C3316      C3322   1.403       .  A
C3316      C3317   1.415       .  A
C3317      C3319   1.401       .  A
C3317      C3318   1.406       .  A
C3318      H3325   1.084       .  S
C3319      C3320   1.397       .  A
C3319      H3326   1.084       .  S
C3320      C3321   1.407       .  A
C3320      H3327   1.083       .  S
C3321      C3322   1.406       .  A
C3322      H3328   1.085       .  S
C3329      C3330   1.402       .  A
C3329      C3334   1.403       .  A
C3330      C3331   1.405       .  A
C3330      H3339   1.083       .  S
C3331      C3332   1.407       .  A
C3331      H3340   1.083       .  S
C3332      C3338   1.412       .  A
C3332      C3333   1.415       .  A
C3333      C3335   1.400       .  A
C3333      C3334   1.401       .  A
C3334      H3341   1.085       .  S
C3335      C3336   1.393       .  A
C3335      H3342   1.084       .  S
C3336      C3337   1.403       .  A
C3336      H3343   1.084       .  S
C3337      C3338   1.407       .  A
C3338      H3344   1.084       .  S
C3345      C3346   1.404       .  A
C3345      C3350   1.399       .  A
C3346      C3347   1.393       .  A
C3346      H3355   1.084       .  S
C3347      C3348   1.399       .  A
C3347      H3356   1.084       .  S
C3348      C3354   1.403       .  A
C3348      C3349   1.419       .  A
C3349      C3351   1.400       .  A
C3349      C3350   1.405       .  A
C3350      H3357   1.085       .  S
C3351      C3352   1.395       .  A
C3351      H3358   1.084       .  S
C3352      C3353   1.404       .  A
C3352      H3359   1.084       .  S
C3353      C3354   1.398       .  A
C3354      H3360   1.085       .  S
