geometry optimzed in LAMMPS
_audit_creation_date              2020-11-30 
_audit_creation_method            'lammps2cif' 
_symmetry_space_group_name_H-M    'P1' 
_symmetry_Int_Tables_number       1 
_symmetry_cell_setting            triclinic 
loop_ 
_symmetry_equiv_pos_as_xyz 
  x,y,z 
_cell_length_a                    35.41104462 
_cell_length_b                    42.11743404072297 
_cell_length_c                    25.31853582268392 
_cell_angle_alpha                 90.26709858698018 
_cell_angle_beta                  84.3422635600716 
_cell_angle_gamma                 82.43504164499156 
loop_ 
_atom_site_label 
_atom_site_type_symbol 
_atom_site_fract_x 
_atom_site_fract_y 
_atom_site_fract_z 
_atom_site_charge 
C1          C  0.45550470  0.00052012  0.27618238     0.30500
C2          C  0.03260594  0.50004680  0.27609910     0.30500
C3          C  0.47947053  0.47224440  0.24893598    -0.05700
C4          C  0.47255320  0.02932838  0.25037459    -0.06500
C5          C  0.47167975  0.99942934  0.33025371    -0.06300
C6          C  0.01946557  0.47058781  0.24970685    -0.05700
C7          C  0.01227641  0.02932236  0.24581085    -0.06400
C8          C  0.00850140  0.50182709  0.33023787    -0.06300
C9          C  0.03663345  0.44338899  0.22133434    -0.31700
N10         N  0.00865325  0.42780730  0.20478980     0.14800
C11         C  0.47358175  0.44578360  0.22040428    -0.31700
H12         H  0.44655536  0.43950470  0.21011742     0.16700
C13         C  0.02105821  0.05553252  0.21696188    -0.30700
N14         N  0.48914615  0.07158840  0.20657388     0.13500
C15         C  0.45912052  0.05597717  0.22280123    -0.30700
C16         C  0.01580671  0.50248447  0.38250395    -0.31000
N17         N  0.48568528  0.99938638  0.41378016     0.14000
H18         H  0.04375828  0.50184967  0.39660783     0.16600
C19         C  0.45665626  0.99941478  0.38234909    -0.31000
H20         H  0.42664275  0.00029391  0.39627683     0.16600
H21         H  0.43003526  0.06314921  0.21373082     0.16600
H22         H  0.06695128  0.43583210  0.21197355     0.16700
H23         H  0.04909881  0.06258462  0.20674709     0.16600
C24         C  0.20529414  0.00358453  0.27676921     0.30500
C25         C  0.28258183  0.50178621  0.27593896     0.30500
C26         C  0.22863221  0.47455125  0.24750832    -0.05700
C27         C  0.22332646  0.03197242  0.25046397    -0.06500
C28         C  0.22175540  0.00239605  0.33077205    -0.06300
C29         C  0.26862435  0.47376690  0.24674266    -0.05700
C30         C  0.26337567  0.03070546  0.25011442    -0.06400
C31         C  0.25947667  0.50161538  0.33043511    -0.06300
C32         C  0.28510238  0.44728812  0.21613194    -0.31700
N33         N  0.25661550  0.43242812  0.19936565     0.14800
C34         C  0.22238101  0.44892318  0.21724173    -0.31700
H35         H  0.19506643  0.44270348  0.20797495     0.16700
C36         C  0.27366054  0.05730581  0.22383982    -0.30700
N37         N  0.24161414  0.07460616  0.20923612     0.13500
C38         C  0.21096373  0.05939681  0.22392631    -0.30700
C39         C  0.26774777  0.50275849  0.38213846    -0.31000
N40         N  0.23619005  0.00407873  0.41406442     0.14000
H41         H  0.29579848  0.50362218  0.39517928     0.16600
C42         C  0.20687362  0.00422158  0.38307303    -0.31000
H43         H  0.17686439  0.00580821  0.39743492     0.16600
H44         H  0.18219390  0.06766314  0.21473200     0.16600
H45         H  0.31530425  0.43951670  0.20603349     0.16700
H46         H  0.30222216  0.06360120  0.21499802     0.16600
C47         C  0.42205117  0.00604891  0.77854632     0.30500
C48         C  0.50150035  0.00414084  0.77761813     0.30500
C49         C  0.43642562  0.03608807  0.80111580    -0.05700
C50         C  0.44127349  0.47879709  0.81085634    -0.06500
C51         C  0.44580946  0.00164371  0.72423405    -0.06300
C52         C  0.47651661  0.03510263  0.79947113    -0.05700
C53         C  0.48120600  0.47726355  0.81033266    -0.06400
C54         C  0.48560699  0.00107516  0.72340478    -0.06300
C55         C  0.48348553  0.06347679  0.82092363    -0.31700
N56         N  0.44963386  0.08084950  0.83769018     0.14800
C57         C  0.42061830  0.06463960  0.82658039    -0.31700
H58         H  0.39061769  0.07264378  0.83794143     0.16700
C59         C  0.49324753  0.45112620  0.84004470    -0.30700
N60         N  0.46200064  0.43746831  0.85867911     0.13500
C61         C  0.43031608  0.45423151  0.84194739    -0.30700
C62         C  0.49962230  0.00202242  0.67078613    -0.31000
N63         N  0.47022385  0.00191864  0.64011947     0.14000
H64         H  0.02929409  0.00153148  0.65391860     0.16600
C65         C  0.43724714  0.00191809  0.67247428    -0.31000
H66         H  0.40885845  0.00352410  0.65946980     0.16600
H67         H  0.40162205  0.44825008  0.85092602     0.16600
H68         H  0.01249918  0.06934290  0.82207338     0.16700
H69         H  0.02376917  0.44274870  0.84413588     0.16600
C70         C  0.17230762  0.00658678  0.77789681     0.30500
C71         C  0.25196610  0.00288559  0.77687132     0.30500
C72         C  0.18750577  0.03156349  0.81314913    -0.05700
C73         C  0.19194039  0.47518084  0.79966446    -0.06500
C74         C  0.19520669  0.01109836  0.72388469    -0.06300
C75         C  0.22764283  0.02891036  0.81286526    -0.05700
C76         C  0.23197982  0.47299573  0.80014904    -0.06400
C77         C  0.23508778  0.00915931  0.72369381    -0.06300
C78         C  0.23591928  0.05342566  0.84364446    -0.31700
N79         N  0.20288794  0.07179238  0.86076471     0.14800
C80         C  0.17309002  0.05924799  0.84242599    -0.31700
H81         H  0.14366217  0.07046212  0.84769874     0.16700
C82         C  0.24285108  0.44565313  0.82777159    -0.30700
N83         N  0.21121850  0.43144283  0.84186008     0.13500
C84         C  0.18010504  0.44916065  0.82542723    -0.30700
C85         C  0.25019847  0.01002414  0.67174990    -0.31000
N86         N  0.22106401  0.01262149  0.64020878     0.14000
H87         H  0.28034983  0.00781621  0.65794812     0.16600
C88         C  0.18745386  0.01373288  0.67167463    -0.31000
H89         H  0.15958688  0.01472513  0.65726976     0.16600
H90         H  0.15091371  0.44410421  0.83353420     0.16600
H91         H  0.26400581  0.05857761  0.85145566     0.16700
H92         H  0.27106742  0.43730726  0.83910784     0.16600
Zr93       Zr  0.43926030  0.20328454  0.03975679     2.17500
O94         O  0.39618287  0.18827859  0.11352902    -0.50800
O95         O  0.44111234  0.16317860  0.97056615    -0.74000
O96         O  0.37990328  0.20350534  0.00382590    -0.80800
O97         O  0.00537077  0.17451281  0.13240086    -0.82500
O98         O  0.39764308  0.23970291  0.94907296    -0.78200
O99         O  0.46401998  0.15576647  0.08467349    -0.89800
O100        O  0.48114650  0.17748074  0.90139442    -0.75800
O101        O  0.44528667  0.23157467  0.95766801    -0.85300
O102        O  0.50554968  0.19347804  0.01042003    -0.84900
O103        O  0.41672989  0.25997697  0.05769940    -0.71700
O104        O  0.46445961  0.22682882  0.11339647    -0.83800
Zr105      Zr  0.01693675  0.30223926  0.01044979     2.26400
Zr106      Zr  0.42286972  0.28745015  0.97453711     2.06300
Zr107      Zr  0.02888729  0.21831966  0.08188223     2.10000
Zr108      Zr  0.51030606  0.22304045  0.92992942     1.78800
O109        O  0.05080883  0.22359956  0.16936895    -0.92600
O110        O  0.49021609  0.23287143  0.84144707    -0.40400
O111        O  0.00172757  0.24883918  0.01270874    -0.77100
O112        O  0.48934077  0.28016434  0.94008444    -0.95800
O113        O  0.45196585  0.31243528  0.04217177    -0.89100
O114        O  0.01377752  0.27552644  0.09513309    -0.91900
C115        C  0.45744929  0.15965826  0.92308750     1.01800
C116        C  0.48569692  0.15292928  0.12229165     1.14800
C117        C  0.37157840  0.22907505  0.97930387     1.05600
O118        O  0.37990969  0.30340400  0.90734689    -0.94100
O119        O  0.43963522  0.33399984  0.92584544    -0.89800
O120        O  0.48727208  0.34870993  0.96992034    -0.83000
C121        C  0.46251927  0.35377820  0.93644797     1.12200
O122        O  0.39744586  0.27383779  0.19158137    -0.96000
Zr123      Zr  0.44824208  0.28429177  0.12437451     1.88900
O124        O  0.02682867  0.33703705  0.08236947    -0.72700
O125        O  0.37346557  0.31934362  0.03368026    -0.51900
O126        O  0.39128571  0.32276561  0.14797771    -0.96600
O127        O  0.47722812  0.27096691  0.20621905    -0.53800
O128        O  0.47467411  0.33332544  0.14361125    -0.73200
C129        C  0.50347138  0.34690335  0.12510562     0.99100
O130        O  0.06222336  0.33051669  0.95686560    -0.62000
O131        O  0.07796432  0.17308315  0.05693835    -0.56800
O132        O  0.07461585  0.27096348  0.97585355    -0.93500
O133        O  0.07945533  0.24739706  0.05262946    -0.91900
O134        O  0.07297714  0.18881150  0.92486490    -0.92300
O135        O  0.06906570  0.24067516  0.88332343    -0.91100
C136        C  0.09006372  0.24916952  0.00370355     1.18000
H137        H  0.01394701  0.17108566  0.00444918     0.33900
H138        H  0.49466971  0.29091820  0.90710988     0.44800
H139        H  0.02897936  0.28305250  0.12103497     0.38300
H140        H  0.39033115  0.26204824  0.07203416     0.34800
H141        H  0.50264869  0.21409287  0.81965702     0.26600
H142        H  0.36863927  0.34019832  0.01606600     0.32500
H143        H  0.40021159  0.34043508  0.16722875     0.38400
H144        H  0.06724116  0.16728589  0.91514978     0.32900
H145        H  0.06934228  0.15453063  0.07622389     0.31800
H146        H  0.05685810  0.20135983  0.18148270     0.33400
H147        H  0.47041658  0.24949051  0.21559753     0.32400
H148        H  0.05951542  0.25704486  0.85819393     0.36400
H149        H  0.05350821  0.33110464  0.92084695     0.29100
H150        H  0.38917252  0.16728716  0.10332986     0.33400
H151        H  0.39594989  0.25065316  0.18757579     0.36200
H152        H  0.07637912  0.16791029  0.01920850     0.28800
H153        H  0.05714798  0.35303892  0.96985116     0.41700
H154        H  0.38882156  0.28842386  0.87706804     0.31800
H155        H  0.46257307  0.23071288  0.84477614     0.39400
H156        H  0.98264223  0.25456345  0.20589746     0.31200
H157        H  0.34956932  0.30971137  0.03353258     0.31300
H158        H  0.37264271  0.20376503  0.11350806     0.31600
Zr159      Zr  0.18919257  0.20487735  0.04424161     2.17500
O160        O  0.14346525  0.19121211  0.11594233    -0.50800
O161        O  0.19470805  0.16072445  0.98164491    -0.74000
O162        O  0.13086511  0.20236469  0.00682267    -0.80800
O163        O  0.25863404  0.17880500  0.13976002    -0.82500
O164        O  0.14737098  0.23751883  0.94939769    -0.78200
O165        O  0.21380534  0.15996351  0.09481860    -0.89800
O166        O  0.23511218  0.17228924  0.91085557    -0.75800
O167        O  0.19548055  0.22991637  0.95913309    -0.85300
O168        O  0.25558027  0.19494565  0.01566488    -0.84900
O169        O  0.16556814  0.26170325  0.05667171    -0.71700
O170        O  0.21407750  0.23127331  0.11526493    -0.83800
Zr171      Zr  0.26565079  0.30345400  0.00807483     2.26400
Zr172      Zr  0.17246499  0.28603776  0.97080434     2.06300
Zr173      Zr  0.27953960  0.22193145  0.08540071     2.10000
Zr174      Zr  0.26070573  0.22139305  0.93225086     1.78800
O175        O  0.30108456  0.22969943  0.17241220    -0.92600
O176        O  0.23888067  0.22598206  0.84386719    -0.40400
O177        O  0.25150818  0.24986846  0.01465275    -0.77100
O178        O  0.23924398  0.27865107  0.93747374    -0.95800
O179        O  0.20024191  0.31415509  0.03633150    -0.89100
O180        O  0.26346365  0.27926129  0.09461842    -0.91900
C181        C  0.21212486  0.15475273  0.93525831     1.01800
C182        C  0.23713756  0.15764960  0.13036417     1.14800
C183        C  0.12187396  0.22736098  0.98123998     1.05600
O184        O  0.12812883  0.29965773  0.90434202    -0.94100
O185        O  0.18956401  0.32984732  0.91631793    -0.89800
O186        O  0.23417203  0.34823378  0.96212039    -0.83000
C187        C  0.21078185  0.35094194  0.92660654     1.12200
O188        O  0.14382085  0.28064950  0.18721718    -0.96000
Zr189      Zr  0.19616322  0.28883459  0.12101199     1.88900
O190        O  0.27369953  0.34115060  0.07723932    -0.72700
O191        O  0.12419979  0.32076297  0.02705913    -0.51900
O192        O  0.14004868  0.32933413  0.13391010    -0.96600
O193        O  0.21695245  0.28039497  0.20940615    -0.53800
O194        O  0.22320457  0.33769488  0.13848407    -0.73200
C195        C  0.25198454  0.35094205  0.11910459     0.99100
O196        O  0.31284049  0.33225105  0.95950936    -0.62000
O197        O  0.32862984  0.17647149  0.06202696    -0.56800
O198        O  0.32298502  0.27155519  0.97341045    -0.93500
O199        O  0.33022141  0.24958834  0.05121527    -0.91900
O200        O  0.32204950  0.18749168  0.92942200    -0.92300
O201        O  0.31648915  0.23963334  0.88343797    -0.91100
C202        C  0.33957992  0.25061164  0.00178858     1.18000
H203        H  0.26423161  0.17223547  0.01282438     0.33900
H204        H  0.24495738  0.28819450  0.90348958     0.44800
H205        H  0.27894465  0.28780345  0.11914273     0.38300
H206        H  0.13905921  0.26395548  0.07058089     0.34800
H207        H  0.25059212  0.20598358  0.82474022     0.26600
H208        H  0.11872809  0.34044540  0.00644746     0.32500
H209        H  0.14843040  0.34895363  0.11782370     0.38400
H210        H  0.31879115  0.16845598  0.90809039     0.32900
H211        H  0.32158673  0.15871172  0.08481042     0.31800
H212        H  0.32203977  0.24303236  0.16582277     0.33400
H213        H  0.24282070  0.28708087  0.20736977     0.32400
H214        H  0.31098869  0.24003378  0.84585230     0.36400
H215        H  0.30580593  0.33309743  0.92259171     0.29100
H216        H  0.13697782  0.16999258  0.10596636     0.33400
H217        H  0.13974196  0.25812184  0.18159088     0.36200
H218        H  0.32578150  0.16924382  0.02566319     0.28800
H219        H  0.30686551  0.35465828  0.97291667     0.41700
H220        H  0.13591996  0.28334474  0.87568567     0.31800
H221        H  0.21117014  0.22419551  0.84916229     0.39400
H222        H  0.22140447  0.25684101  0.21304889     0.31200
H223        H  0.10041406  0.31081152  0.03061752     0.31300
H224        H  0.11997344  0.20639190  0.11323867     0.31600
C225        C  0.20920417  0.37938902  0.89609726    -0.12700
C226        C  0.21017270  0.40348413  0.87108858    -0.14300
C227        C  0.20189253  0.10119549  0.88734173    -0.12700
C228        C  0.20543542  0.12602803  0.90904105    -0.13300
C229        C  0.46126770  0.38353563  0.90880059    -0.12700
C230        C  0.46206338  0.40860297  0.88609294    -0.14300
C231        C  0.44935543  0.13324515  0.89221119    -0.12700
C232        C  0.44677703  0.10958569  0.86665862    -0.14300
C233        C  0.35213837  0.03343244  0.77055049    -0.12800
C234        C  0.37802693  0.00543275  0.77616837     0.09300
C235        C  0.36138664  0.47487012  0.77116275    -0.12800
C236        C  0.32143639  0.47390354  0.77270333    -0.12800
C237        C  0.29643650  0.00318935  0.77412982     0.09300
C238        C  0.31247857  0.03225305  0.76868962    -0.12800
H239        H  0.36246258  0.05637556  0.76611717     0.13300
H240        H  0.38022334  0.45242199  0.76724218     0.13300
H241        H  0.31156651  0.45083141  0.76997543     0.13300
H242        H  0.29416551  0.05444171  0.76339532     0.13300
C243        C  0.06165336  0.01466623  0.82139394    -0.12800
C244        C  0.04640947  0.00157363  0.77774176     0.09300
C245        C  0.07192788  0.48673935  0.73898790    -0.12800
C246        C  0.11174145  0.48785052  0.73939209    -0.12800
C247        C  0.12805014  0.00554888  0.77805166     0.09300
C248        C  0.10126513  0.01711508  0.82119141    -0.12800
H249        H  0.04283122  0.02321533  0.85621983     0.13300
H250        H  0.06275781  0.47241182  0.70845113     0.13300
H251        H  0.13099233  0.47438960  0.70901671     0.13300
H252        H  0.11083472  0.02710487  0.85605635     0.13300
C253        C  0.25962495  0.37911104  0.14596336    -0.12700
C254        C  0.26067756  0.40372597  0.16991426    -0.14300
C255        C  0.24044362  0.10398927  0.18349731    -0.12700
C256        C  0.23941063  0.12910205  0.16087184    -0.14300
C257        C  0.26121067  0.49196713  0.49964279    -0.12800
C258        C  0.23248002  0.00648462  0.47110065     0.09300
C259        C  0.19984075  0.02387185  0.49870742    -0.12800
C260        C  0.19626303  0.02616074  0.55408711    -0.12800
C261        C  0.22523574  0.01109272  0.58304054     0.09300
C262        C  0.25787684  0.49346630  0.55502249    -0.12800
H263        H  0.28693824  0.47915191  0.47888637     0.13300
H264        H  0.17729389  0.03606793  0.47743194     0.13300
H265        H  0.17098683  0.03998551  0.57425745     0.13300
H266        H  0.28109221  0.48164745  0.57546380     0.13300
C267        C  0.01322965  0.39880935  0.17604587    -0.12700
C268        C  0.01209670  0.37423522  0.15199862    -0.14300
C269        C  0.48727268  0.09993885  0.17766009    -0.12700
C270        C  0.48646661  0.12431575  0.15281865    -0.14300
C271        C  0.34515090  0.02925519  0.28681733    -0.12800
C272        C  0.32683898  0.50174777  0.27781766     0.09300
C273        C  0.35212748  0.47308494  0.28075538    -0.12800
C274        C  0.39209597  0.47311404  0.28139444    -0.12800
C275        C  0.41102728  0.00059643  0.27873307     0.09300
C276        C  0.38517766  0.02914452  0.28662161    -0.12800
H277        H  0.32686267  0.05176360  0.29447010     0.13300
H278        H  0.34101717  0.45040167  0.28397783     0.13300
H279        H  0.40943210  0.45044434  0.28618894     0.13300
H280        H  0.39574290  0.05158212  0.29356026     0.13300
C281        C  0.10248016  0.47257220  0.28406442    -0.12800
C282        C  0.07665072  0.50071978  0.27901181     0.09300
C283        C  0.09460883  0.03118068  0.27941279    -0.12800
C284        C  0.13445413  0.03189416  0.28033920    -0.12800
C285        C  0.16070761  0.00351444  0.27926505     0.09300
C286        C  0.14230210  0.47342885  0.28518838    -0.12800
H287        H  0.09196258  0.44968630  0.28831600     0.13300
H288        H  0.07607922  0.05374216  0.28280549     0.13300
H289        H  0.14424808  0.05491452  0.28407348     0.13300
H290        H  0.16035416  0.45111463  0.29032431     0.13300
C291        C  0.00749912  0.01568570  0.49772003    -0.12800
C292        C  0.48157530  0.00028926  0.47091089     0.09300
C293        C  0.45176106  0.48678271  0.49649597    -0.12800
C294        C  0.44826726  0.48546056  0.55187320    -0.12800
C295        C  0.47354933  0.00205530  0.58298146     0.09300
C296        C  0.00391576  0.01505930  0.55311850    -0.12800
H297        H  0.03075421  0.02664052  0.47758279     0.13300
H298        H  0.43279595  0.47472801  0.47478049     0.13300
H299        H  0.42667870  0.47248283  0.57166968     0.13300
H300        H  0.02449779  0.02564584  0.57401117     0.13300
C301        C  0.45371485  0.50175474  0.27499747     0.30500
C302        C  0.03483153  0.00121191  0.27355025     0.30500
C303        C  0.48133142  0.97247549  0.24593509    -0.05700
C304        C  0.47135402  0.52910659  0.24500039    -0.06500
C305        C  0.46961350  0.50358199  0.32897359    -0.06300
C306        C  0.02193251  0.97214077  0.24548230    -0.05700
C307        C  0.01088199  0.52763690  0.24620424    -0.06400
C308        C  0.01122355  0.00160111  0.32789640    -0.06300
C309        C  0.03912154  0.94471400  0.21756588    -0.31700
N310        N  0.01108682  0.92892959  0.20146611     0.14800
C311        C  0.47538879  0.94659025  0.21606327    -0.31700
H312        H  0.44830808  0.94035094  0.20594716     0.16700
C313        C  0.02056709  0.55318186  0.21618251    -0.30700
N314        N  0.48833962  0.57121024  0.20096929     0.13500
C315        C  0.45816855  0.55573140  0.21717634    -0.30700
C316        C  0.01879337  0.00242038  0.38004729    -0.31000
N317        N  0.48366530  0.50412067  0.41242043     0.14000
H318        H  0.04677152  0.00233699  0.39382724     0.16600
C319        C  0.45461540  0.50400385  0.38109270    -0.31000
H320        H  0.42476845  0.50388593  0.39513802     0.16600
H321        H  0.42896626  0.56354130  0.20927706     0.16600
H322        H  0.06945987  0.93679079  0.20933269     0.16700
H323        H  0.04890433  0.55979094  0.20662636     0.16600
C324        C  0.20312247  0.50288251  0.27742355     0.30500
C325        C  0.28478637  0.00132049  0.27575992     0.30500
C326        C  0.23029331  0.97505608  0.24673944    -0.05700
C327        C  0.22049073  0.53147697  0.25068871    -0.06500
C328        C  0.21974713  0.50214782  0.33130724    -0.06300
C329        C  0.27033148  0.97363596  0.24604564    -0.05700
C330        C  0.26051815  0.53072695  0.24998908    -0.06400
C331        C  0.26152702  0.00127486  0.33019629    -0.06300
C332        C  0.28614001  0.94689122  0.21536799    -0.31700
N333        N  0.25720487  0.93243147  0.19887174     0.14800
C334        C  0.22334857  0.94951576  0.21678080    -0.31700
H335        H  0.19577587  0.94370036  0.20788198     0.16700
C336        C  0.27038795  0.55664501  0.22144819    -0.30700
N337        N  0.23816710  0.57327285  0.20614927     0.13500
C338        C  0.20769083  0.55816972  0.22256158    -0.30700
C339        C  0.26961170  0.00224886  0.38206583    -0.31000
N340        N  0.23452725  0.50404229  0.41442797     0.14000
H341        H  0.29764121  0.00272830  0.39543294     0.16600
C342        C  0.20509882  0.50371358  0.38371952    -0.31000
H343        H  0.17519684  0.50467282  0.39832366     0.16600
H344        H  0.17877318  0.56580944  0.21328442     0.16600
H345        H  0.31618708  0.93860780  0.20505740     0.16700
H346        H  0.29885804  0.56279879  0.21112862     0.16600
C347        C  0.42098496  0.50458815  0.77665312     0.30500
C348        C  0.50049249  0.50202957  0.77613929     0.30500
C349        C  0.43583451  0.53508334  0.79729674    -0.05700
C350        C  0.44296969  0.97960931  0.81095625    -0.06500
C351        C  0.44497575  0.49851484  0.72258697    -0.06300
C352        C  0.47594477  0.53365159  0.79581522    -0.05700
C353        C  0.48291169  0.97836114  0.81011772    -0.06400
C354        C  0.48484691  0.49768410  0.72193583    -0.06300
C355        C  0.48347763  0.56180377  0.81760049    -0.31700
N356        N  0.44992723  0.57967889  0.83435991     0.14800
C357        C  0.42058702  0.56382470  0.82302299    -0.31700
H358        H  0.39073038  0.57196922  0.83513519     0.16700
C359        C  0.49546562  0.95196743  0.83890695    -0.30700
N360        N  0.46446678  0.93794217  0.85734758     0.13500
C361        C  0.43250642  0.95472275  0.84153946    -0.30700
C362        C  0.49890458  0.49862014  0.66924581    -0.31000
N363        N  0.46961634  0.49852633  0.63841531     0.14000
H364        H  0.02679889  0.50242931  0.65505153     0.16600
C365        C  0.43655847  0.49863487  0.67064252    -0.31000
H366        H  0.40819051  0.50083385  0.65742781     0.16600
H367        H  0.40392294  0.94862587  0.85109360     0.16600
H368        H  0.01078200  0.57059429  0.82233467     0.16700
H369        H  0.02399758  0.94181121  0.84393758     0.16600
C370        C  0.17095455  0.50596479  0.77851856     0.30500
C371        C  0.25056818  0.50212520  0.77814753     0.30500
C372        C  0.18606835  0.53198620  0.81146107    -0.05700
C373        C  0.19374332  0.97506816  0.79592118    -0.06500
C374        C  0.19430851  0.50860107  0.72429274    -0.06300
C375        C  0.22615636  0.52927634  0.81179187    -0.05700
C376        C  0.23377169  0.97293238  0.79622035    -0.06400
C377        C  0.23415289  0.50656304  0.72435655    -0.06300
C378        C  0.23414258  0.55416106  0.84200710    -0.31700
N379        N  0.20101957  0.57281306  0.85770641     0.14800
C380        C  0.17142014  0.56005040  0.83937490    -0.31700
H381        H  0.14195410  0.57119369  0.84414446     0.16700
C382        C  0.24477589  0.94507135  0.82269386    -0.30700
N383        N  0.21333656  0.93040781  0.83580597     0.13500
C384        C  0.18214527  0.94845779  0.82021016    -0.30700
C385        C  0.24946353  0.50712787  0.67244224    -0.31000
N386        N  0.22040942  0.50969484  0.64072760     0.14000
H387        H  0.27962348  0.50539081  0.65889441     0.16600
C388        C  0.18673962  0.51096409  0.67207922    -0.31000
H389        H  0.15882881  0.51248232  0.65770903     0.16600
H390        H  0.15295714  0.94346201  0.82866426     0.16600
H391        H  0.26206339  0.55921572  0.85077832     0.16700
H392        H  0.27280239  0.93689724  0.83479541     0.16600
Zr393      Zr  0.43843998  0.70392035  0.03614588     2.17500
O394        O  0.39352655  0.69035098  0.10893058    -0.50800
O395        O  0.44158408  0.66249335  0.96827476    -0.74000
O396        O  0.37969633  0.70401120  0.99864213    -0.80800
O397        O  0.00664585  0.67271187  0.12983521    -0.82500
O398        O  0.39635921  0.74088048  0.94431376    -0.78200
O399        O  0.46167217  0.65740929  0.08483882    -0.89800
O400        O  0.48129385  0.67688638  0.89884643    -0.75800
O401        O  0.44509307  0.73195368  0.95374063    -0.85300
O402        O  0.50490072  0.69356885  0.00786598    -0.84900
O403        O  0.41605211  0.76075792  0.05298689    -0.71700
O404        O  0.46356520  0.72767758  0.10973241    -0.83800
Zr405      Zr  0.01526536  0.80277833  0.01084417     2.26400
Zr406      Zr  0.42292598  0.78800349  0.96975898     2.06300
Zr407      Zr  0.02839336  0.71835485  0.08153570     2.10000
Zr408      Zr  0.51036230  0.72282446  0.92713331     1.78800
O409        O  0.04999601  0.72382461  0.16918139    -0.92600
O410        O  0.49354362  0.73017158  0.83648917    -0.40400
O411        O  0.00076563  0.74915197  0.01295796    -0.77100
O412        O  0.48959625  0.78008438  0.93680204    -0.95800
O413        O  0.45113722  0.81309861  0.03820198    -0.89100
O414        O  0.01308678  0.77560726  0.09505571    -0.91900
C415        C  0.45796831  0.65876649  0.92075982     1.01800
C416        C  0.48407808  0.65430153  0.12162248     1.14800
C417        C  0.37087643  0.72987531  0.97515193     1.05600
O418        O  0.37996662  0.80406891  0.90260047    -0.94100
O419        O  0.44189988  0.83383207  0.92071713    -0.89800
O420        O  0.48640930  0.84950165  0.96966001    -0.83000
C421        C  0.46363692  0.85403418  0.93361035     1.12200
O422        O  0.39540363  0.77072889  0.18341404    -0.96000
Zr423      Zr  0.44667265  0.78515135  0.12049452     1.88900
O424        O  0.02528354  0.83758208  0.08268527    -0.72700
O425        O  0.37412942  0.82121429  0.02770077    -0.51900
O426        O  0.38928424  0.82381493  0.13922943    -0.96600
O427        O  0.46898574  0.77651018  0.20802463    -0.53800
O428        O  0.47344656  0.83403983  0.14075157    -0.73200
C429        C  0.50294374  0.84703056  0.12300286     0.99100
O430        O  0.06037481  0.83351951  0.96208268    -0.62000
O431        O  0.07833833  0.67383595  0.05603476    -0.56800
O432        O  0.07254065  0.77168220  0.97454183    -0.93500
O433        O  0.07857515  0.74763535  0.05078836    -0.91900
O434        O  0.06971978  0.68750714  0.92463735    -0.92300
O435        O  0.06689821  0.74146758  0.88250313    -0.91100
C436        C  0.08851165  0.74976105  0.00170429     1.18000
H437        H  0.01293482  0.67152501  0.00394399     0.33900
H438        H  0.49540882  0.79069033  0.90383273     0.44800
H439        H  0.02870346  0.78308473  0.12044811     0.38300
H440        H  0.38953097  0.76300506  0.06677338     0.34800
H441        H  0.50691052  0.71100142  0.81647050     0.26600
H442        H  0.36827653  0.84124518  0.00810577     0.32500
H443        H  0.39713705  0.84089946  0.16106051     0.38400
H444        H  0.06251299  0.66601932  0.91794900     0.32900
H445        H  0.07221592  0.65579145  0.07878834     0.31800
H446        H  0.03085853  0.71486283  0.19391767     0.33400
H447        H  0.49492933  0.78308069  0.20543989     0.32400
H448        H  0.05721208  0.75675241  0.85582613     0.36400
H449        H  0.05250869  0.83507210  0.92562165     0.29100
H450        H  0.38700050  0.66903312  0.09966871     0.33400
H451        H  0.39703769  0.74715722  0.17966620     0.36200
H452        H  0.07479748  0.66676438  0.01983101     0.28800
H453        H  0.05438995  0.85561456  0.97694777     0.41700
H454        H  0.39130603  0.79144692  0.87047449     0.31800
H455        H  0.46602543  0.72774140  0.83817771     0.39400
H456        H  0.99213996  0.77991835  0.20864020     0.31200
H457        H  0.35063350  0.81084515  0.03016024     0.31300
H458        H  0.36996872  0.70556260  0.10691076     0.31600
Zr459      Zr  0.18763600  0.70507258  0.04166176     2.17500
O460        O  0.14181084  0.69282609  0.11434321    -0.50800
O461        O  0.19203352  0.66169590  0.97799413    -0.74000
O462        O  0.12956987  0.70299332  0.00295953    -0.80800
O463        O  0.25842912  0.67573401  0.13313344    -0.82500
O464        O  0.14569641  0.73909296  0.94697457    -0.78200
O465        O  0.21129292  0.65896823  0.09012450    -0.89800
O466        O  0.23324876  0.67314443  0.90799600    -0.75800
O467        O  0.19365671  0.73124210  0.95765421    -0.85300
O468        O  0.25396464  0.69463015  0.01212050    -0.84900
O469        O  0.16463180  0.76182221  0.05610366    -0.71700
O470        O  0.21389732  0.73002892  0.11298382    -0.83800
Zr471      Zr  0.26453231  0.80341696  0.00725480     2.26400
Zr472      Zr  0.17080403  0.78717566  0.97103091     2.06300
Zr473      Zr  0.27913369  0.72048622  0.08182471     2.10000
Zr474      Zr  0.25866134  0.72218057  0.92981748     1.78800
O475        O  0.30148510  0.72515743  0.16916325    -0.92600
O476        O  0.23352734  0.72139468  0.84380129    -0.40400
O477        O  0.25012961  0.74971651  0.01297687    -0.77100
O478        O  0.23727878  0.77942187  0.93665143    -0.95800
O479        O  0.19941456  0.81418087  0.03705299    -0.89100
O480        O  0.26353671  0.77798079  0.09289412    -0.91900
C481        C  0.20975093  0.65580997  0.93178171     1.01800
C482        C  0.23556203  0.65546940  0.12437721     1.14800
C483        C  0.12032710  0.72832210  0.97828706     1.05600
O484        O  0.12491614  0.80245639  0.90728205    -0.94100
O485        O  0.18859972  0.83068856  0.91579238    -0.89800
O486        O  0.23450692  0.84838183  0.95983283    -0.83000
C487        C  0.21101643  0.85118499  0.92441190     1.12200
O488        O  0.14352514  0.77842875  0.18541741    -0.96000
Zr489      Zr  0.19645800  0.78760938  0.12088248     1.88900
O490        O  0.27219334  0.84139915  0.07649147    -0.72700
O491        O  0.12300557  0.82040048  0.03034827    -0.51900
O492        O  0.14175332  0.82890722  0.14017644    -0.96600
O493        O  0.21910224  0.77633598  0.20760637    -0.53800
O494        O  0.22351447  0.83634274  0.13986931    -0.73200
C495        C  0.25137368  0.85041325  0.11953244     0.99100
O496        O  0.31207452  0.83118889  0.95730942    -0.62000
O497        O  0.32819307  0.67567060  0.05426683    -0.56800
O498        O  0.32199147  0.77228602  0.97141771    -0.93500
O499        O  0.32947053  0.74896929  0.04816633    -0.91900
O500        O  0.32134929  0.69022273  0.92462449    -0.92300
O501        O  0.31068677  0.74390749  0.87766633    -0.91100
C502        C  0.33878078  0.75092683  0.99880553     1.18000
H503        H  0.26240077  0.67190343  0.00849236     0.33900
H504        H  0.24283764  0.78915285  0.90281872     0.44800
H505        H  0.27923857  0.78643359  0.11722550     0.38300
H506        H  0.13820844  0.76397553  0.07037761     0.34800
H507        H  0.22209497  0.74377339  0.83871608     0.26600
H508        H  0.11763978  0.84080534  0.01161231     0.32500
H509        H  0.14793063  0.84735184  0.11838946     0.38400
H510        H  0.32274884  0.67703465  0.89183757     0.32900
H511        H  0.32139716  0.65729380  0.07572886     0.31800
H512        H  0.31659965  0.74335261  0.16641959     0.33400
H513        H  0.24259956  0.78671872  0.20770251     0.32400
H514        H  0.29821682  0.75779147  0.85119701     0.36400
H515        H  0.30530643  0.83125476  0.92026770     0.29100
H516        H  0.13595019  0.67109279  0.10637866     0.33400
H517        H  0.14115763  0.75543063  0.18095985     0.36200
H518        H  0.32486374  0.66950318  0.01753486     0.28800
H519        H  0.30614286  0.85385241  0.96940930     0.41700
H520        H  0.13881776  0.79580691  0.87230839     0.31800
H521        H  0.25645359  0.71805856  0.81764240     0.39400
H522        H  0.22832617  0.75309190  0.20670339     0.31200
H523        H  0.09912621  0.81056504  0.03265612     0.31300
H524        H  0.11804892  0.70741772  0.11040709     0.31600
C525        C  0.21071432  0.87895367  0.89195302    -0.12700
C526        C  0.21220941  0.90259423  0.86566017    -0.14300
C527        C  0.19970286  0.60240332  0.88366083    -0.12700
C528        C  0.20300214  0.62730648  0.90518336    -0.13300
C529        C  0.46336728  0.88366579  0.90598296    -0.12700
C530        C  0.46473850  0.90883299  0.88390789    -0.14300
C531        C  0.45029262  0.63189111  0.88999734    -0.12700
C532        C  0.44761246  0.60824965  0.86408384    -0.14300
C533        C  0.35094556  0.53219687  0.77066686    -0.12800
C534        C  0.37690152  0.50407703  0.77458635     0.09300
C535        C  0.36272043  0.97616138  0.77277767    -0.12800
C536        C  0.32294050  0.97503245  0.77289360    -0.12800
C537        C  0.29504702  0.50219677  0.77537012     0.09300
C538        C  0.31121190  0.53118331  0.76990434    -0.12800
H539        H  0.36125939  0.55512458  0.76620494     0.13300
H540        H  0.38160401  0.95374934  0.76929736     0.13300
H541        H  0.31343394  0.95187962  0.76970483     0.13300
H542        H  0.29302129  0.55345906  0.76489674     0.13300
C543        C  0.06032340  0.51572181  0.82174839    -0.12800
C544        C  0.04482448  0.50248329  0.77847217     0.09300
C545        C  0.07378220  0.98646417  0.73796814    -0.12800
C546        C  0.11346990  0.98817353  0.73840222    -0.12800
C547        C  0.12665959  0.50532833  0.77859747     0.09300
C548        C  0.10004483  0.51756466  0.82147900    -0.12800
H549        H  0.04165616  0.52469344  0.85646768     0.13300
H550        H  0.06497984  0.97212378  0.70716916     0.13300
H551        H  0.13294509  0.97524989  0.70766760     0.13300
H552        H  0.10983079  0.52760014  0.85615299     0.13300
C553        C  0.25892512  0.87873629  0.14646919    -0.12700
C554        C  0.26045743  0.90349425  0.16997806    -0.14300
C555        C  0.23704652  0.60198131  0.17830073    -0.12700
C556        C  0.23690534  0.62673788  0.15461791    -0.14300
C557        C  0.26152410  0.99152915  0.49999591    -0.12800
C558        C  0.23121117  0.50600304  0.47149032     0.09300
C559        C  0.19799222  0.52192742  0.49988835    -0.12800
C560        C  0.19469996  0.52353104  0.55526761    -0.12800
C561        C  0.22449437  0.50914645  0.58352583     0.09300
C562        C  0.25791962  0.99375255  0.55534317    -0.12800
H563        H  0.28672494  0.97759282  0.47981073     0.13300
H564        H  0.17471342  0.53349464  0.47927305     0.13300
H565        H  0.16891557  0.53629724  0.57591359     0.13300
H566        H  0.28039198  0.98131333  0.57645995     0.13300
C567        C  0.01514958  0.89903655  0.17535117    -0.12700
C568        C  0.01289986  0.87391778  0.15346737    -0.14300
C569        C  0.48629691  0.60047605  0.17465715    -0.12700
C570        C  0.48514412  0.62553091  0.15171931    -0.14300
C571        C  0.34318727  0.53038334  0.28325206    -0.12800
C572        C  0.32895564  0.00091886  0.27807190     0.09300
C573        C  0.35426580  0.97208629  0.27818607    -0.12800
C574        C  0.39416518  0.97193838  0.27922881    -0.12800
C575        C  0.40911179  0.50174569  0.27781644     0.09300
C576        C  0.38325386  0.53040135  0.28279129    -0.12800
H577        H  0.32500411  0.55306368  0.28894341     0.13300
H578        H  0.34325186  0.94936332  0.27949590     0.13300
H579        H  0.41154952  0.94907940  0.28207730     0.13300
H580        H  0.39382469  0.55307441  0.28743378     0.13300
C581        C  0.10439457  0.97398432  0.28306720    -0.12800
C582        C  0.07887149  0.00207034  0.27637881     0.09300
C583        C  0.09220872  0.52984516  0.28276098    -0.12800
C584        C  0.13209539  0.53067768  0.28286672    -0.12800
C585        C  0.15857468  0.50238720  0.28025728     0.09300
C586        C  0.14414318  0.97474173  0.28506289    -0.12800
H587        H  0.09363169  0.95120831  0.28768992     0.13300
H588        H  0.07348854  0.55233071  0.28652841     0.13300
H589        H  0.14189527  0.55371965  0.28653612     0.13300
H590        H  0.16196256  0.95246286  0.29128309     0.13300
C591        C  0.00377158  0.51684166  0.49970483    -0.12800
C592        C  0.47994704  0.50292865  0.46944965     0.09300
C593        C  0.45182939  0.98669338  0.49950706    -0.12800
C594        C  0.44785726  0.98757457  0.55493195    -0.12800
C595        C  0.47290802  0.50022083  0.58135408     0.09300
C596        C  0.00023297  0.51643184  0.55506630    -0.12800
H597        H  0.02665542  0.52816666  0.47939403     0.13300
H598        H  0.43203682  0.97483169  0.47904112     0.13300
H599        H  0.42518387  0.97627238  0.57584750     0.13300
H600        H  0.02049781  0.52751220  0.57582997     0.13300
C601        C  0.95573438  0.00069157  0.27395551     0.30500
C602        C  0.53299702  0.50115893  0.27441130     0.30500
C603        C  0.97958346  0.47096942  0.24940153    -0.05700
C604        C  0.97243848  0.02910549  0.24618112    -0.06500
C605        C  0.97173107  0.00128284  0.32798019    -0.06300
C606        C  0.51942796  0.47168865  0.24858017    -0.05700
C607        C  0.51243488  0.02898852  0.25003286    -0.06400
C608        C  0.50922219  0.50341637  0.32871318    -0.06300
C609        C  0.53617252  0.44442660  0.21997937    -0.31700
N610        N  0.50788296  0.42889750  0.20427481     0.14800
C611        C  0.97415088  0.44455446  0.22037704    -0.31700
H612        H  0.94731750  0.43819235  0.20946943     0.16700
C613        C  0.52168866  0.05529506  0.22176946    -0.30700
N614        N  0.98830012  0.07127816  0.20151796     0.13500
C615        C  0.95858976  0.05538082  0.21807255    -0.30700
C616        C  0.51705481  0.50392436  0.38076483    -0.31000
N617        N  0.98531562  0.00257572  0.41161740     0.14000
H618        H  0.54516298  0.50295870  0.39452259     0.16600
C619        C  0.95651037  0.00194011  0.37998233    -0.31000
H620        H  0.92651665  0.00235483  0.39361697     0.16600
H621        H  0.92934938  0.06237793  0.20954366     0.16600
H622        H  0.56639084  0.43677675  0.20983660     0.16700
H623        H  0.54997200  0.06179069  0.21123005     0.16600
C624        C  0.70524723  0.00151094  0.27825469     0.30500
C625        C  0.78274313  0.50082068  0.27665466     0.30500
C626        C  0.72845331  0.47484668  0.24647330    -0.05700
C627        C  0.72288211  0.03018698  0.25212382    -0.06500
C628        C  0.72209573  0.00008892  0.33190809    -0.06300
C629        C  0.76846390  0.47361879  0.24570814    -0.05700
C630        C  0.76295525  0.02898763  0.25114136    -0.06400
C631        C  0.75993296  0.49949068  0.33116496    -0.06300
C632        C  0.78455106  0.44721253  0.21450655    -0.31700
N633        N  0.75579105  0.43287461  0.19720133     0.14800
C634        C  0.72179940  0.44966643  0.21538432    -0.31700
H635        H  0.69434447  0.44373884  0.20619935     0.16700
C636        C  0.77301144  0.05548227  0.22438506    -0.30700
N637        N  0.74086459  0.07295694  0.21057173     0.13500
C638        C  0.71023122  0.05779044  0.22601176    -0.30700
C639        C  0.76851136  0.49964005  0.38288220    -0.31000
N640        N  0.73710137  0.00154499  0.41473731     0.14000
H641        H  0.79663605  0.50014064  0.39592423     0.16600
C642        C  0.70754596  0.00157586  0.38426274    -0.31000
H643        H  0.67761611  0.00307394  0.39904429     0.16600
H644        H  0.68127709  0.06612935  0.21764354     0.16600
H645        H  0.81468360  0.43894511  0.20488023     0.16700
H646        H  0.80154839  0.06158675  0.21448247     0.16600
C647        C  0.92225362  0.00518197  0.77644337     0.30500
C648        C  0.00187682  0.00263376  0.77568307     0.30500
C649        C  0.93708889  0.03562075  0.79708440    -0.05700
C650        C  0.94160931  0.47985943  0.81257879    -0.06500
C651        C  0.94623663  0.99924587  0.72234663    -0.06300
C652        C  0.97722877  0.03422289  0.79545093    -0.05700
C653        C  0.98159916  0.47846043  0.81108127    -0.06400
C654        C  0.98613916  0.99835254  0.72157270    -0.06300
C655        C  0.98471627  0.06241604  0.81703602    -0.31700
N656        N  0.95117127  0.08017539  0.83404891     0.14800
C657        C  0.92180190  0.06432858  0.82276838    -0.31700
H658        H  0.89190555  0.07243916  0.83472412     0.16700
C659        C  0.99430200  0.45191128  0.83936198    -0.30700
N660        N  0.96335086  0.43804019  0.85842257     0.13500
C661        C  0.93126070  0.45500843  0.84337161    -0.30700
C662        C  0.00012540  0.99950296  0.66891326    -0.31000
N663        N  0.97071307  0.99985757  0.63813182     0.14000
H664        H  0.52888789  0.00362457  0.65564477     0.16600
C665        C  0.93770786  0.99995194  0.67050849    -0.31000
H666        H  0.90924961  0.00249148  0.65758064     0.16600
H667        H  0.90271536  0.44889956  0.85322656     0.16600
H668        H  0.51106279  0.07101832  0.82529750     0.16700
H669        H  0.52252538  0.44208633  0.84611691     0.16600
C670        C  0.67209113  0.00612830  0.77719033     0.30500
C671        C  0.75170926  0.00193594  0.77739443     0.30500
C672        C  0.68726224  0.03212881  0.80991404    -0.05700
C673        C  0.69180865  0.47450280  0.79979402    -0.06500
C674        C  0.69562865  0.00857819  0.72310518    -0.06300
C675        C  0.72733092  0.02930416  0.81044958    -0.05700
C676        C  0.73174980  0.47247449  0.80109468    -0.06400
C677        C  0.73549611  0.00637942  0.72354615    -0.06300
C678        C  0.73536164  0.05443841  0.83995919    -0.31700
N679        N  0.70222091  0.07310890  0.85545980     0.14800
C680        C  0.67261974  0.06034618  0.83726807    -0.31700
H681        H  0.64314205  0.07145721  0.84218812     0.16700
C682        C  0.74260042  0.44413465  0.82634021    -0.30700
N683        N  0.71110176  0.42928465  0.83800861     0.13500
C684        C  0.68006370  0.44750873  0.82240374    -0.30700
C685        C  0.75106972  0.00728120  0.67193612    -0.31000
N686        N  0.72218960  0.01011740  0.64004481     0.14000
H687        H  0.78127506  0.00548223  0.65859500     0.16600
C688        C  0.68831438  0.01131121  0.67086142    -0.31000
H689        H  0.66052836  0.01292243  0.65603758     0.16600
H690        H  0.65095439  0.44200962  0.82877203     0.16600
H691        H  0.76328128  0.05942623  0.84886828     0.16700
H692        H  0.77067745  0.43539801  0.83771921     0.16600
Zr693      Zr  0.93893544  0.20416064  0.03640738     2.17500
O694        O  0.89418536  0.19109168  0.10975774    -0.50800
O695        O  0.94230250  0.16290410  0.96829756    -0.74000
O696        O  0.88050553  0.20413458  0.99808758    -0.80800
O697        O  0.50661085  0.17398077  0.13433253    -0.82500
O698        O  0.89731652  0.24086389  0.94355388    -0.78200
O699        O  0.96168190  0.15709304  0.08365336    -0.89800
O700        O  0.98424675  0.17601413  0.90043814    -0.75800
O701        O  0.94630205  0.23182803  0.95387903    -0.85300
O702        O  0.00552548  0.19377485  0.00899545    -0.84900
O703        O  0.91656333  0.26097546  0.05273628    -0.71700
O704        O  0.96338376  0.22807951  0.11055776    -0.83800
Zr705      Zr  0.51717187  0.30159244  0.01213710     2.26400
Zr706      Zr  0.92403389  0.28784062  0.96928908     2.06300
Zr707      Zr  0.52971363  0.21762601  0.08316709     2.10000
Zr708      Zr  0.01170105  0.22283259  0.92821583     1.78800
O709        O  0.55210549  0.22446907  0.17002292    -0.92600
O710        O  0.99250716  0.23039715  0.83879376    -0.40400
O711        O  0.50171654  0.24842953  0.01483710    -0.77100
O712        O  0.99092967  0.28003939  0.93722799    -0.95800
O713        O  0.95142503  0.31336578  0.03808938    -0.89100
O714        O  0.51519288  0.27487127  0.09653352    -0.91900
C715        C  0.95991845  0.15852636  0.92158094     1.01800
C716        C  0.98380870  0.15385701  0.12069605     1.14800
C717        C  0.87179036  0.22995670  0.97444543     1.05600
O718        O  0.88143723  0.30408546  0.90181549    -0.94100
O719        O  0.94316484  0.33312603  0.91957263    -0.89800
O720        O  0.98536417  0.34977936  0.97139296    -0.83000
C721        C  0.96365557  0.35386509  0.93394484     1.12200
O722        O  0.89272808  0.27497882  0.18244457    -0.96000
Zr723      Zr  0.94650150  0.28566682  0.12055977     1.88900
O724        O  0.52546796  0.33768180  0.08322234    -0.72700
O725        O  0.87584386  0.32142362  0.02754739    -0.51900
O726        O  0.89033405  0.32554450  0.13987920    -0.96600
O727        O  0.96634771  0.27557043  0.20909911    -0.53800
O728        O  0.97440249  0.33401005  0.14043958    -0.73200
C729        C  0.00427042  0.34670467  0.12350598     0.99100
O730        O  0.56394476  0.32935783  0.96063720    -0.62000
O731        O  0.57885253  0.17244698  0.05809393    -0.56800
O732        O  0.57390945  0.26872015  0.97664622    -0.93500
O733        O  0.58131240  0.24491211  0.05287516    -0.91900
O734        O  0.57029096  0.18717078  0.92589393    -0.92300
O735        O  0.56785994  0.23970362  0.88348995    -0.91100
C736        C  0.59053505  0.24701083  0.00371290     1.18000
H737        H  0.51406887  0.17084134  0.00526465     0.33900
H738        H  0.99712603  0.29051356  0.90424461     0.44800
H739        H  0.53087137  0.28258914  0.12164345     0.38300
H740        H  0.89001679  0.26330042  0.06640106     0.34800
H741        H  0.00754887  0.21246547  0.81740933     0.26600
H742        H  0.86970209  0.34130540  0.00768337     0.32500
H743        H  0.89795653  0.34562217  0.12461327     0.38400
H744        H  0.56886380  0.17196596  0.89643562     0.32900
H745        H  0.57121173  0.15422747  0.07925668     0.31800
H746        H  0.55060363  0.20378904  0.18798366     0.33400
H747        H  0.98427873  0.29116795  0.21456856     0.32400
H748        H  0.55868365  0.25922605  0.86440110     0.36400
H749        H  0.55579844  0.33032523  0.92428247     0.29100
H750        H  0.88805793  0.16947719  0.10156903     0.33400
H751        H  0.89131474  0.25185243  0.17744315     0.36200
H752        H  0.57618101  0.16635371  0.02106284     0.28800
H753        H  0.55911497  0.35181050  0.97395009     0.41700
H754        H  0.89370166  0.29245288  0.86917865     0.31800
H755        H  0.96571693  0.22574029  0.84088471     0.39400
H756        H  0.46224882  0.28563562  0.23356545     0.31200
H757        H  0.85237028  0.31101374  0.03098464     0.31300
H758        H  0.87045113  0.20595201  0.10700452     0.31600
Zr759      Zr  0.69007261  0.20290556  0.04449717     2.17500
O760        O  0.64399093  0.19011263  0.11647689    -0.50800
O761        O  0.69502758  0.15899153  0.98180322    -0.74000
O762        O  0.63217738  0.20043354  0.00485756    -0.80800
O763        O  0.76154563  0.17616356  0.13733131    -0.82500
O764        O  0.64723053  0.23661973  0.94834014    -0.78200
O765        O  0.71447558  0.15818719  0.09564557    -0.89800
O766        O  0.73345040  0.17213684  0.90995703    -0.75800
O767        O  0.69513756  0.22898270  0.96042136    -0.85300
O768        O  0.75626964  0.19328668  0.01376439    -0.84900
O769        O  0.66644087  0.25948671  0.05877584    -0.71700
O770        O  0.71680528  0.22840459  0.11476145    -0.83800
Zr771      Zr  0.76513891  0.30255402  0.00702644     2.26400
Zr772      Zr  0.67145017  0.28480024  0.97355640     2.06300
Zr773      Zr  0.78184576  0.21979922  0.08257675     2.10000
Zr774      Zr  0.75984791  0.22074022  0.93118112     1.78800
O775        O  0.80538585  0.22620060  0.16882476    -0.92600
O776        O  0.73703264  0.22451433  0.84333539    -0.40400
O777        O  0.75206099  0.24857080  0.01387932    -0.77100
O778        O  0.73755862  0.27781132  0.93773333    -0.95800
O779        O  0.70023315  0.31247426  0.03861504    -0.89100
O780        O  0.76535531  0.27731617  0.09272925    -0.91900
C781        C  0.71117335  0.15411416  0.93449122     1.01800
C782        C  0.73875170  0.15556769  0.12995681     1.14800
C783        C  0.62230374  0.22560387  0.97994852     1.05600
O784        O  0.62730845  0.29921971  0.90731295    -0.94100
O785        O  0.68594094  0.32931136  0.91864822    -0.89800
O786        O  0.73584193  0.34574187  0.95553253    -0.83000
C787        C  0.70989311  0.34907274  0.92363321     1.12200
O788        O  0.64747782  0.27460716  0.18870903    -0.96000
Zr789      Zr  0.69858951  0.28576559  0.12256725     1.88900
O790        O  0.77042992  0.34227386  0.07454510    -0.72700
O791        O  0.62314364  0.31670457  0.03439809    -0.51900
O792        O  0.64206060  0.32473886  0.14569915    -0.96600
O793        O  0.72593418  0.27381217  0.20608840    -0.53800
O794        O  0.72495235  0.33486160  0.14134814    -0.73200
C795        C  0.75097141  0.35025478  0.11901723     0.99100
O796        O  0.81352560  0.33001565  0.95834662    -0.62000
O797        O  0.83029077  0.17448731  0.05519254    -0.56800
O798        O  0.82322663  0.27260963  0.97095857    -0.93500
O799        O  0.83072668  0.24944302  0.04764906    -0.91900
O800        O  0.82205404  0.18804197  0.92546269    -0.92300
O801        O  0.81434006  0.24029834  0.88141529    -0.91100
C802        C  0.83993125  0.25119178  0.99824158     1.18000
H803        H  0.76501746  0.17060533  0.01020905     0.33900
H804        H  0.74237755  0.28745808  0.90362457     0.44800
H805        H  0.78095345  0.28641418  0.11647877     0.38300
H806        H  0.64017223  0.26135228  0.07362093     0.34800
H807        H  0.75246100  0.20658300  0.82237488     0.26600
H808        H  0.61813953  0.33770923  0.01733804     0.32500
H809        H  0.65086441  0.34600450  0.14124166     0.38400
H810        H  0.81894531  0.16905869  0.90391385     0.32900
H811        H  0.82236513  0.15598278  0.07535032     0.31800
H812        H  0.81381352  0.24769328  0.16865240     0.33400
H813        H  0.71981114  0.25213382  0.21546869     0.32400
H814        H  0.80861330  0.24037163  0.84393238     0.36400
H815        H  0.80754250  0.32977486  0.92095217     0.29100
H816        H  0.63781059  0.16864523  0.10739992     0.33400
H817        H  0.64320153  0.25245387  0.18029360     0.36200
H818        H  0.82767190  0.16905726  0.01790984     0.28800
H819        H  0.80721953  0.35275354  0.96988468     0.41700
H820        H  0.63917402  0.28724752  0.87479970     0.31800
H821        H  0.71077264  0.21859614  0.84790009     0.39400
H822        H  0.70991021  0.28831042  0.23275689     0.31200
H823        H  0.59905939  0.30723675  0.03544678     0.31300
H824        H  0.62040770  0.20501942  0.11295792     0.31600
C825        C  0.70851960  0.37674623  0.89105656    -0.12700
C826        C  0.70984123  0.40077775  0.86583414    -0.14300
C827        C  0.70065319  0.10199986  0.88342771    -0.12700
C828        C  0.70390899  0.12618626  0.90697710    -0.13300
C829        C  0.96297576  0.38357865  0.90657306    -0.12700
C830        C  0.96384976  0.40881763  0.88462592    -0.14300
C831        C  0.95216097  0.13180466  0.89066715    -0.12700
C832        C  0.94906863  0.10846982  0.86433042    -0.14300
C833        C  0.85213893  0.03236064  0.76865696    -0.12800
C834        C  0.87811037  0.00446971  0.77445130     0.09300
C835        C  0.86123437  0.47554404  0.77535978    -0.12800
C836        C  0.82138867  0.47427299  0.77657636    -0.12800
C837        C  0.79623401  0.00216240  0.77474221     0.09300
C838        C  0.81240560  0.03110855  0.76758507    -0.12800
H839        H  0.86247102  0.05526622  0.76348137     0.13300
H840        H  0.88017204  0.45315981  0.77189046     0.13300
H841        H  0.81192007  0.45105960  0.77419707     0.13300
H842        H  0.79415178  0.05319749  0.76148551     0.13300
C843        C  0.56176741  0.01640938  0.82160581    -0.12800
C844        C  0.54598997  0.00302883  0.77878444     0.09300
C845        C  0.57222601  0.48593512  0.73809285    -0.12800
C846        C  0.61190512  0.48749579  0.73846255    -0.12800
C847        C  0.62780227  0.00580362  0.77754007     0.09300
C848        C  0.60151895  0.01809071  0.82076007    -0.12800
H849        H  0.54338192  0.02540297  0.85654783     0.13300
H850        H  0.56337873  0.47173953  0.70716704     0.13300
H851        H  0.63123366  0.47461280  0.70756821     0.13300
H852        H  0.61159092  0.02797899  0.85533043     0.13300
C853        C  0.75797936  0.37895445  0.14531586    -0.12700
C854        C  0.75927771  0.40388553  0.16842244    -0.14300
C855        C  0.74006217  0.10232375  0.18458530    -0.12700
C856        C  0.74023151  0.12730594  0.16152230    -0.14300
C857        C  0.76098645  0.48742343  0.50092257    -0.12800
C858        C  0.73373725  0.00431615  0.47154722     0.09300
C859        C  0.70161253  0.02246013  0.49895418    -0.12800
C860        C  0.69818980  0.02491113  0.55419815    -0.12800
C861        C  0.72677203  0.00917874  0.58304607     0.09300
C862        C  0.75783969  0.48967294  0.55635452    -0.12800
H863        H  0.78551938  0.47279305  0.48038074     0.13300
H864        H  0.67931032  0.03498180  0.47760688     0.13300
H865        H  0.67322074  0.03914945  0.57438118     0.13300
H866        H  0.77988454  0.47651835  0.57740520     0.13300
C867        C  0.51201793  0.39975309  0.17601764    -0.12700
C868        C  0.51078223  0.37495585  0.15266640    -0.14300
C869        C  0.98578367  0.10012048  0.17398471    -0.12700
C870        C  0.98463035  0.12498756  0.15050816    -0.14300
C871        C  0.84508697  0.02823610  0.28505317    -0.12800
C872        C  0.82692936  0.50052250  0.27845998     0.09300
C873        C  0.85207913  0.47171715  0.28029377    -0.12800
C874        C  0.89205463  0.47158954  0.28074912    -0.12800
C875        C  0.91125975  0.00016612  0.27688786     0.09300
C876        C  0.88510073  0.02856286  0.28378540    -0.12800
H877        H  0.82667809  0.05068596  0.29250721     0.13300
H878        H  0.84086082  0.44906021  0.28272278     0.13300
H879        H  0.90935901  0.44881452  0.28474805     0.13300
H880        H  0.89541272  0.05125067  0.28947236     0.13300
C881        C  0.60265449  0.47319567  0.28125868    -0.12800
C882        C  0.57704580  0.50157705  0.27721979     0.09300
C883        C  0.59456656  0.02928679  0.28388639    -0.12800
C884        C  0.63444943  0.02978880  0.28456516    -0.12800
C885        C  0.66064586  0.00134846  0.28136480     0.09300
C886        C  0.64235741  0.47374265  0.28353431    -0.12800
H887        H  0.59201943  0.45033987  0.28448377     0.13300
H888        H  0.57609648  0.05185668  0.28856859     0.13300
H889        H  0.64444631  0.05266669  0.28922204     0.13300
H890        H  0.66016565  0.45123588  0.28813587     0.13300
C891        C  0.50709285  0.01498992  0.49894665    -0.12800
C892        C  0.98109601  0.00271102  0.46882394     0.09300
C893        C  0.94782912  0.48952155  0.49899270    -0.12800
C894        C  0.94431104  0.48907311  0.55445220    -0.12800
C895        C  0.97383147  0.00142866  0.58099961     0.09300
C896        C  0.50310222  0.01590050  0.55434342    -0.12800
H897        H  0.52981850  0.02624676  0.47806946     0.13300
H898        H  0.92762862  0.47844208  0.47806872     0.13300
H899        H  0.92151899  0.47766590  0.57484551     0.13300
H900        H  0.52293122  0.02778114  0.57468319     0.13300
C901        C  0.95352713  0.50029196  0.27561107     0.30500
C902        C  0.53468956  0.99992843  0.27589101     0.30500
C903        C  0.98204775  0.97225528  0.24558001    -0.05700
C904        C  0.97104237  0.52790391  0.24613959    -0.06500
C905        C  0.96897583  0.50188842  0.32991715    -0.06300
C906        C  0.52128136  0.97173049  0.24604223    -0.05700
C907        C  0.51129450  0.52869778  0.24462255    -0.06400
C908        C  0.51125672  0.99925885  0.33011683    -0.06300
C909        C  0.53796361  0.94448778  0.21719239    -0.31700
N910        N  0.50958747  0.92949097  0.20012289     0.14800
C911        C  0.97662389  0.94572009  0.21698206    -0.31700
H912        H  0.94972169  0.93890913  0.20723003     0.16700
C913        C  0.52079120  0.55489463  0.21639158    -0.30700
N914        N  0.98832609  0.56912326  0.19940203     0.13500
C915        C  0.95805150  0.55391743  0.21658316    -0.30700
C916        C  0.51908375  0.99925676  0.38215181    -0.31000
N917        N  0.98215418  0.50295404  0.41377980     0.14000
H918        H  0.54709353  0.99910432  0.39587757     0.16600
C919        C  0.95346664  0.50258029  0.38187661    -0.31000
H920        H  0.92344945  0.50290199  0.39532911     0.16600
H921        H  0.92893566  0.56126114  0.20779557     0.16600
H922        H  0.56820005  0.93611508  0.20908516     0.16700
H923        H  0.54902085  0.56189880  0.20768618     0.16600
C924        C  0.70331509  0.50269218  0.27829163     0.30500
C925        C  0.78481884  0.99964257  0.27632075     0.30500
C926        C  0.73032247  0.97320262  0.24773765    -0.05700
C927        C  0.72080043  0.53170123  0.25342592    -0.06500
C928        C  0.72014221  0.50047548  0.33217151    -0.06300
C929        C  0.77039696  0.97198109  0.24671360    -0.05700
C930        C  0.76082332  0.53059066  0.25263695    -0.06400
C931        C  0.76189662  0.99919374  0.33086358    -0.06300
C932        C  0.78633448  0.94540503  0.21590391    -0.31700
N933        N  0.75744416  0.93096626  0.19929407     0.14800
C934        C  0.72350435  0.94778208  0.21749185    -0.31700
H935        H  0.69599947  0.94192980  0.20836224     0.16700
C936        C  0.77086742  0.55680727  0.22500123    -0.30700
N937        N  0.73872089  0.57395286  0.21047461     0.13500
C938        C  0.70813554  0.55886820  0.22632311    -0.30700
C939        C  0.77033404  0.99999313  0.38249559    -0.31000
N940        N  0.73538159  0.50096325  0.41532259     0.14000
H941        H  0.79840929  0.00069834  0.39557916     0.16600
C942        C  0.70573237  0.50151911  0.38475357    -0.31000
H943        H  0.67581197  0.50312024  0.39962706     0.16600
H944        H  0.67929169  0.56669831  0.21692027     0.16600
H945        H  0.81642239  0.93728065  0.20555626     0.16700
H946        H  0.79942882  0.56265495  0.21428120     0.16600
C947        C  0.92067779  0.50567268  0.77905739     0.30500
C948        C  0.00029209  0.50352958  0.77702000     0.30500
C949        C  0.93545729  0.53611987  0.79960332    -0.05700
C950        C  0.94266634  0.97945775  0.81058975    -0.06500
C951        C  0.94420348  0.50007156  0.72463111    -0.06300
C952        C  0.97559384  0.53494580  0.79736342    -0.05700
C953        C  0.98265168  0.97777059  0.80974977    -0.06400
C954        C  0.98411250  0.49935327  0.72323414    -0.06300
C955        C  0.98301901  0.56339061  0.81804847    -0.31700
N956        N  0.94941495  0.58106909  0.83503275     0.14800
C957        C  0.92010761  0.56494206  0.82469730    -0.31700
H958        H  0.89023329  0.57302206  0.83683379     0.16700
C959        C  0.99470080  0.95123587  0.83862622    -0.30700
N960        N  0.96334881  0.93773907  0.85738537     0.13500
C961        C  0.93167265  0.95494845  0.84164818    -0.30700
C962        C  0.99768174  0.50048123  0.67046415    -0.31000
N963        N  0.96798141  0.50072060  0.64020355     0.14000
H964        H  0.52797697  0.50092348  0.65409910     0.16600
C965        C  0.93521964  0.50068216  0.67301294    -0.31000
H966        H  0.90664596  0.50300508  0.66049405     0.16600
H967        H  0.90294281  0.94918448  0.85118519     0.16600
H968        H  0.51129434  0.56858348  0.82289891     0.16700
H969        H  0.52485077  0.94313685  0.84473317     0.16600
C970        C  0.67083157  0.50525369  0.77863983     0.30500
C971        C  0.75031870  0.50186300  0.77961308     0.30500
C972        C  0.68536626  0.53134776  0.81196641    -0.05700
C973        C  0.69273251  0.97528557  0.79852192    -0.06500
C974        C  0.69459351  0.50808227  0.72468476    -0.06300
C975        C  0.72537927  0.52901688  0.81280448    -0.05700
C976        C  0.73275897  0.97286046  0.79939188    -0.06400
C977        C  0.73441444  0.50616147  0.72542124    -0.06300
C978        C  0.73276944  0.55459559  0.84199465    -0.31700
N979        N  0.69932632  0.57305116  0.85698369     0.14800
C980        C  0.67011094  0.55958887  0.83895738    -0.31700
H981        H  0.64047077  0.57032244  0.84324914     0.16700
C982        C  0.74322761  0.94494491  0.82594978    -0.30700
N983        N  0.71142075  0.93069393  0.83889011     0.13500
C984        C  0.68055608  0.94890924  0.82276188    -0.30700
C985        C  0.75021522  0.50644366  0.67362362    -0.31000
N986        N  0.72146710  0.50895922  0.64144543     0.14000
H987        H  0.78045411  0.50440559  0.66036418     0.16600
C988        C  0.68754436  0.51040447  0.67222962    -0.31000
H989        H  0.65985311  0.51195441  0.65717093     0.16600
H990        H  0.65128957  0.94389076  0.82996878     0.16600
H991        H  0.76050719  0.56018899  0.85060137     0.16700
H992        H  0.77128649  0.93615648  0.83734598     0.16600
Zr993      Zr  0.93812527  0.70403671  0.03757037     2.17500
O994        O  0.89437611  0.69025204  0.11153088    -0.50800
O995        O  0.94109848  0.66323179  0.96903157    -0.74000
O996        O  0.87956347  0.70356931  0.99953583    -0.80800
O997        O  0.50583261  0.67491365  0.13265427    -0.82500
O998        O  0.89671476  0.74017666  0.94512335    -0.78200
O999        O  0.96194334  0.65603831  0.08215362    -0.89800
O1000       O  0.98119425  0.67758555  0.89998705    -0.75800
O1001       O  0.94470505  0.73197789  0.95516433    -0.85300
O1002       O  0.00447331  0.69417796  0.00885501    -0.84900
O1003       O  0.91542156  0.76084197  0.05433154    -0.71700
O1004       O  0.96306333  0.72797054  0.11139678    -0.83800
Zr1005     Zr  0.51652987  0.80190950  0.00960104     2.26400
Zr1006     Zr  0.92209336  0.78787197  0.97083528     2.06300
Zr1007     Zr  0.52886719  0.71806333  0.08053575     2.10000
Zr1008     Zr  0.00986837  0.72352421  0.92821921     1.78800
O1009       O  0.54874587  0.72333389  0.16923128    -0.92600
O1010       O  0.99025920  0.73194161  0.83912371    -0.40400
O1011       O  0.50107686  0.74863075  0.01178932    -0.77100
O1012       O  0.98889444  0.78068012  0.93783764    -0.95800
O1013       O  0.94992094  0.81343604  0.03927575    -0.89100
O1014       O  0.51388245  0.77521029  0.09393195    -0.91900
C1015       C  0.95768388  0.65959667  0.92166579     1.01800
C1016       C  0.98490019  0.65212362  0.11817774     1.14800
C1017       C  0.87088117  0.72920916  0.97535965     1.05600
O1018       O  0.87821796  0.80361503  0.90467222    -0.94100
O1019       O  0.94030316  0.83326733  0.92029109    -0.89800
O1020       O  0.98350965  0.84980029  0.97053406    -0.83000
C1021       C  0.96137719  0.85385886  0.93359762     1.12200
O1022       O  0.89145230  0.77400796  0.18146626    -0.96000
Zr1023     Zr  0.94597733  0.78563013  0.12173869     1.88900
O1024       O  0.52518474  0.83739388  0.08151413    -0.72700
O1025       O  0.87375300  0.82047873  0.03031760    -0.51900
O1026       O  0.89263783  0.82833844  0.13986440    -0.96600
O1027       O  0.96562007  0.77467608  0.21014041    -0.53800
O1028       O  0.97527976  0.83298219  0.14419590    -0.73200
C1029       C  0.00426507  0.84636962  0.12554047     0.99100
O1030       O  0.56305943  0.82960991  0.95736964    -0.62000
O1031       O  0.57861865  0.67294700  0.05781062    -0.56800
O1032       O  0.57401449  0.77028167  0.97474447    -0.93500
O1033       O  0.57952803  0.74682897  0.05145218    -0.91900
O1034       O  0.57053690  0.68754068  0.92683074    -0.92300
O1035       O  0.56707653  0.74125381  0.88129082    -0.91100
C1036       C  0.58971289  0.74853145  0.00245327     1.18000
H1037       H  0.51319364  0.67087750  0.00312642     0.33900
H1038       H  0.99483067  0.79122687  0.90483939     0.44800
H1039       H  0.52940082  0.78301343  0.11911969     0.38300
H1040       H  0.88890624  0.76292053  0.06809807     0.34800
H1041       H  0.00095157  0.71213393  0.81871434     0.26600
H1042       H  0.86814395  0.84094084  0.01180384     0.32500
H1043       H  0.90107385  0.84725733  0.12141946     0.38400
H1044       H  0.56585314  0.66749159  0.90953124     0.32900
H1045       H  0.57338454  0.65620842  0.08382479     0.31800
H1046       H  0.56468148  0.74099755  0.16697913     0.33400
H1047       H  0.95035695  0.79173921  0.23319163     0.32400
H1048       H  0.55788942  0.76230524  0.86665753     0.36400
H1049       H  0.55480322  0.83033264  0.92108593     0.29100
H1050       H  0.88814420  0.66873764  0.10287681     0.33400
H1051       H  0.88674178  0.75244129  0.17025297     0.36200
H1052       H  0.57387088  0.66388264  0.02341021     0.28800
H1053       H  0.55816117  0.85213658  0.97033878     0.41700
H1054       H  0.88744870  0.78916188  0.87381168     0.31800
H1055       H  0.96221319  0.73162698  0.84300158     0.39400
H1056       H  0.47335125  0.75294453  0.21144318     0.31200
H1057       H  0.85011107  0.81032508  0.03210753     0.31300
H1058       H  0.87057405  0.70516851  0.10956913     0.31600
Zr1059     Zr  0.68814528  0.70405192  0.04332332     2.17500
O1060       O  0.64260727  0.69255798  0.11691598    -0.50800
O1061       O  0.69205639  0.66069669  0.97948117    -0.74000
O1062       O  0.63006866  0.70142206  0.00488206    -0.80800
O1063       O  0.75939016  0.67587240  0.13486144    -0.82500
O1064       O  0.64701245  0.73699281  0.94858926    -0.78200
O1065       O  0.71234220  0.65842050  0.09253242    -0.89800
O1066       O  0.73051575  0.67355049  0.90741740    -0.75800
O1067       O  0.69398485  0.72992849  0.95917800    -0.85300
O1068       O  0.75429580  0.69393223  0.01297694    -0.84900
O1069       O  0.66499305  0.76089611  0.05657936    -0.71700
O1070       O  0.71456792  0.72951098  0.11399649    -0.83800
Zr1071     Zr  0.76459842  0.80275512  0.00665656     2.26400
Zr1072     Zr  0.67104199  0.78584572  0.97119775     2.06300
Zr1073     Zr  0.77963177  0.72024854  0.08220767     2.10000
Zr1074     Zr  0.75859372  0.72111249  0.93017613     1.78800
O1075       O  0.80172531  0.72853950  0.16871577    -0.92600
O1076       O  0.73331551  0.72419470  0.84396663    -0.40400
O1077       O  0.75070525  0.74901305  0.01289197    -0.77100
O1078       O  0.73748719  0.77845163  0.93633548    -0.95800
O1079       O  0.69947585  0.81335837  0.03683880    -0.89100
O1080       O  0.76362167  0.77763025  0.09253342    -0.91900
C1081       C  0.70795881  0.65572279  0.93200960     1.01800
C1082       C  0.73659646  0.65542535  0.12684640     1.14800
C1083       C  0.62123902  0.72661703  0.97965489     1.05600
O1084       O  0.62710644  0.79865082  0.90407630    -0.94100
O1085       O  0.68679012  0.83009911  0.91664149    -0.89800
O1086       O  0.73459070  0.84700397  0.95776971    -0.83000
C1087       C  0.70974140  0.85032024  0.92421775     1.12200
O1088       O  0.64517206  0.77549437  0.18621137    -0.96000
Zr1089     Zr  0.69663412  0.78704404  0.12099930     1.88900
O1090       O  0.77218022  0.84065085  0.07576657    -0.72700
O1091       O  0.62295082  0.81919808  0.03011310    -0.51900
O1092       O  0.64091410  0.82718883  0.14167363    -0.96600
O1093       O  0.72021266  0.77856716  0.20781446    -0.53800
O1094       O  0.72294346  0.83623590  0.13857133    -0.73200
C1095       C  0.75114110  0.84993614  0.11843104     0.99100
O1096       O  0.81225874  0.83194650  0.96023941    -0.62000
O1097       O  0.82928074  0.67548032  0.05694552    -0.56800
O1098       O  0.82199858  0.77158540  0.97065162    -0.93500
O1099       O  0.82948164  0.74891054  0.04782034    -0.91900
O1100       O  0.81964787  0.68671605  0.92596888    -0.92300
O1101       O  0.81469176  0.73812588  0.88024571    -0.91100
C1102       C  0.83877272  0.75042691  0.99843075     1.18000
H1103       H  0.76281099  0.67121657  0.00953664     0.33900
H1104       H  0.74272262  0.78818263  0.90239342     0.44800
H1105       H  0.77940021  0.78615644  0.11667270     0.38300
H1106       H  0.63857423  0.76314977  0.07088012     0.34800
H1107       H  0.71175078  0.74184894  0.84815227     0.26600
H1108       H  0.61767214  0.83960108  0.01134280     0.32500
H1109       H  0.64629147  0.84587361  0.11997781     0.38400
H1110       H  0.81361080  0.66523236  0.91653854     0.32900
H1111       H  0.82393588  0.65804116  0.08149685     0.31800
H1112       H  0.81286216  0.70699142  0.17930756     0.33400
H1113       H  0.74487468  0.78739897  0.20550089     0.32400
H1114       H  0.80453758  0.75592781  0.85807708     0.36400
H1115       H  0.80620172  0.83256778  0.92287435     0.29100
H1116       H  0.63684214  0.67069784  0.10970303     0.33400
H1117       H  0.63311065  0.75871616  0.16920909     0.36200
H1118       H  0.82480631  0.66736110  0.02177367     0.28800
H1119       H  0.80562110  0.85437698  0.97335039     0.41700
H1120       H  0.63830207  0.78504312  0.87295428     0.31800
H1121       H  0.75309644  0.73269427  0.81972142     0.39400
H1122       H  0.72738321  0.75511637  0.20978139     0.31200
H1123       H  0.59899649  0.80948138  0.03259284     0.31300
H1124       H  0.61878694  0.70692124  0.11236607     0.31600
C1125       C  0.70850509  0.87846502  0.89273809    -0.12700
C1126       C  0.70988754  0.90250843  0.86755035    -0.14300
C1127       C  0.69732709  0.60277168  0.88289368    -0.12700
C1128       C  0.70043461  0.62761660  0.90484160    -0.13300
C1129       C  0.96114983  0.88337091  0.90555498    -0.12700
C1130       C  0.96297771  0.90853153  0.88357045    -0.14300
C1131       C  0.94990530  0.63302381  0.89070379    -0.12700
C1132       C  0.94711442  0.60956750  0.86464543    -0.14300
C1133       C  0.85044594  0.53275917  0.77201159    -0.12800
C1134       C  0.87654457  0.50490047  0.77757547     0.09300
C1135       C  0.86260695  0.97515479  0.77259273    -0.12800
C1136       C  0.82269278  0.97400646  0.77419174    -0.12800
C1137       C  0.79476521  0.50234861  0.77749097     0.09300
C1138       C  0.81074408  0.53140315  0.77089269    -0.12800
H1139       H  0.86064625  0.55571027  0.76682871     0.13300
H1140       H  0.88142923  0.95270607  0.76935452     0.13300
H1141       H  0.81300323  0.95083014  0.77256326     0.13300
H1142       H  0.79241264  0.55345594  0.76485171     0.13300
C1143       C  0.56032285  0.51325327  0.82232582    -0.12800
C1144       C  0.54498377  0.50077565  0.77824588     0.09300
C1145       C  0.57281215  0.98696738  0.73926244    -0.12800
C1146       C  0.61262620  0.98824072  0.73876557    -0.12800
C1147       C  0.62660967  0.50438958  0.77852175     0.09300
C1148       C  0.60000448  0.51536079  0.82224173    -0.12800
H1149       H  0.54151208  0.52167622  0.85724464     0.13300
H1150       H  0.56338423  0.97242220  0.70922944     0.13300
H1151       H  0.63168485  0.97481267  0.70813891     0.13300
H1152       H  0.60978386  0.52493135  0.85734276     0.13300
C1153       C  0.75903962  0.87800114  0.14539990    -0.12700
C1154       C  0.76077524  0.90242547  0.16953294    -0.14300
C1155       C  0.73788827  0.60258766  0.18244177    -0.12700
C1156       C  0.73793244  0.62711273  0.15813656    -0.14300
C1157       C  0.76266510  0.98906310  0.50027396    -0.12800
C1158       C  0.73224713  0.50329678  0.47236219     0.09300
C1159       C  0.70064090  0.52183914  0.50025287    -0.12800
C1160       C  0.69755350  0.52417489  0.55557761    -0.12800
C1161       C  0.72592326  0.50792620  0.58428057     0.09300
C1162       C  0.75920028  0.99142913  0.55551870    -0.12800
H1163       H  0.78753234  0.97470341  0.48003429     0.13300
H1164       H  0.67848928  0.53482196  0.47918758     0.13300
H1165       H  0.67297186  0.53879499  0.57597701     0.13300
H1166       H  0.78138018  0.97861161  0.57672120     0.13300
C1167       C  0.51314108  0.89988970  0.17312913    -0.12700
C1168       C  0.51092230  0.87492324  0.15069662    -0.14300
C1169       C  0.98673158  0.59779561  0.17096329    -0.12700
C1170       C  0.98608963  0.62270502  0.14724089    -0.14300
C1171       C  0.84334763  0.52901900  0.28487005    -0.12800
C1172       C  0.82906992  0.99959883  0.27804913     0.09300
C1173       C  0.85472276  0.97099675  0.27908441    -0.12800
C1174       C  0.89469344  0.97129683  0.27931124    -0.12800
C1175       C  0.90907643  0.50022510  0.27803426     0.09300
C1176       C  0.88338721  0.52890828  0.28401671    -0.12800
H1177       H  0.82526898  0.55167543  0.29166781     0.13300
H1178       H  0.84393695  0.94816189  0.28122067     0.13300
H1179       H  0.91238184  0.94865073  0.28281579     0.13300
H1180       H  0.89412946  0.55148474  0.28904780     0.13300
C1181       C  0.60421221  0.97199607  0.28382869    -0.12800
C1182       C  0.57874603  0.00035477  0.27893131     0.09300
C1183       C  0.59266052  0.53051345  0.28306201    -0.12800
C1184       C  0.63251016  0.53105241  0.28431202    -0.12800
C1185       C  0.65879183  0.50262228  0.28070913     0.09300
C1186       C  0.64403328  0.97252128  0.28564305    -0.12800
H1187       H  0.59337622  0.94919416  0.28709438     0.13300
H1188       H  0.57399940  0.55301883  0.28758085     0.13300
H1189       H  0.64241244  0.55391919  0.28959355     0.13300
H1190       H  0.66181981  0.95004627  0.29057092     0.13300
C1191       C  0.50459782  0.51767734  0.49888991    -0.12800
C1192       C  0.97781265  0.50318929  0.47097641     0.09300
C1193       C  0.95072768  0.98947929  0.49671341    -0.12800
C1194       C  0.94714394  0.98885608  0.55210559    -0.12800
C1195       C  0.97068669  0.50227479  0.58311955     0.09300
C1196       C  0.50108424  0.51638297  0.55423679    -0.12800
H1197       H  0.52623917  0.53061440  0.47911780     0.13300
H1198       H  0.93022200  0.97881476  0.47576725     0.13300
H1199       H  0.92397555  0.97780368  0.57227023     0.13300
H1200       H  0.52007434  0.52847352  0.57581779     0.13300
loop_ 
_geom_bond_atom_site_label_1 
_geom_bond_atom_site_label_2 
_geom_bond_distance 
_geom_bond_site_symmetry_2 
_ccdc_geom_bond_type 
C1            C5   1.534   1_545  S
C1            C4   1.545       .  S
C1          C275   1.570       .  S
C1          C303   1.545   1_545  S
C2            C6   1.552       .  S
C2            C8   1.538       .  S
C2          C282   1.573       .  S
C2          C307   1.550       .  S
C3          C301   1.545       .  S
C3           C11   1.375       .  A
C3          C606   1.411       .  A
C4           C15   1.380       .  A
C4          C607   1.410       .  A
C5           C19   1.373       .  A
C5          C908   1.400       .  A
C6            C9   1.386       .  A
C6          C603   1.411   1_455  A
C7          C302   1.550       .  S
C7           C13   1.379       .  A
C7          C604   1.411   1_455  A
C8           C16   1.374       .  A
C8          C905   1.400   1_455  A
C9           N10   1.356       .  A
C9           H22   1.081       .  S
N10         C611   1.350   1_455  A
N10         C267   1.401       .  S
C11         N610   1.349       .  A
C11          H12   1.081       .  S
C13         N614   1.352   1_455  A
C13          H23   1.081       .  S
N14          C15   1.354       .  A
N14         C613   1.352       .  A
N14         C269   1.401       .  S
C15          H21   1.082       .  S
C16         N917   1.362   1_455  A
C16          H18   1.082       .  S
N17          C19   1.360       .  A
N17         C916   1.361       .  A
N17         C292   1.439   1_565  S
C19          H20   1.082   1_565  S
C24          C28   1.537       .  S
C24          C27   1.551       .  S
C24         C285   1.574       .  S
C24         C326   1.544   1_545  S
C25          C29   1.549       .  S
C25          C31   1.534       .  S
C25         C272   1.572       .  S
C25         C330   1.545       .  S
C26         C324   1.545       .  S
C26          C34   1.375       .  A
C26          C29   1.410       .  A
C27          C38   1.382       .  A
C27          C30   1.411       .  A
C28          C42   1.374       .  A
C28         C331   1.402       .  A
C29          C32   1.384       .  A
C30         C325   1.545       .  S
C30          C36   1.377       .  A
C31          C39   1.371       .  A
C31         C328   1.402       .  A
C32          N33   1.356       .  A
C32          H45   1.081       .  S
N33          C34   1.351       .  A
N33         C254   1.401       .  S
C34          H35   1.082       .  S
C36          N37   1.350       .  A
C36          H46   1.082       .  S
N37          C38   1.354       .  A
N37         C255   1.399       .  S
C38          H44   1.080       .  S
C39         N340   1.360       .  A
C39          H41   1.082       .  S
N40          C42   1.361       .  A
N40         C339   1.360       .  A
N40         C258   1.439       .  S
C42          H43   1.082       .  S
C47          C49   1.551       .  S
C47          C51   1.537       .  S
C47         C234   1.570       .  S
C47         C350   1.541   1_545  S
C48          C52   1.543       .  S
C48          C54   1.545       .  S
C48         C353   1.542   1_545  S
C48         C844   1.573       .  S
C49          C57   1.385       .  A
C49          C52   1.411       .  A
C50         C347   1.540       .  S
C50          C61   1.376       .  A
C50          C53   1.406       .  A
C51          C65   1.374       .  A
C51          C54   1.404       .  A
C52          C55   1.372       .  A
C53         C348   1.544       .  S
C53          C59   1.381       .  A
C54          C62   1.378       .  A
C55          N56   1.348       .  A
C55         H668   1.081       .  S
N56          C57   1.357       .  A
N56         C232   1.399       .  S
C57          H58   1.081       .  S
C59          N60   1.358       .  A
C59         H669   1.082       .  S
N60          C61   1.351       .  A
N60         C230   1.403       .  S
C61          H67   1.082       .  S
C62          N63   1.359       .  A
C62         H664   1.080       .  S
N63          C65   1.359       .  A
N63         C295   1.440       .  S
H64         C662   1.079   1_545  S
C65          H66   1.082       .  S
H68         C655   1.081   1_455  S
H69         C659   1.082   1_455  S
C70          C72   1.558       .  S
C70          C74   1.545       .  S
C70         C247   1.573       .  S
C70         C373   1.535   1_545  S
C71          C75   1.537       .  S
C71          C77   1.536       .  S
C71         C237   1.571       .  S
C71         C376   1.551   1_545  S
C72          C80   1.389       .  A
C72          C75   1.410       .  A
C73         C370   1.533       .  S
C73          C84   1.370       .  A
C73          C76   1.410       .  A
C74          C88   1.378       .  A
C74          C77   1.403       .  A
C75          C78   1.370       .  A
C76         C371   1.548       .  S
C76          C82   1.381       .  A
C77          C85   1.373       .  A
C78          N79   1.347       .  A
C78          H91   1.082       .  S
N79          C80   1.360       .  A
N79         C227   1.401       .  S
C80          H81   1.081       .  S
C82          N83   1.356       .  A
C82          H92   1.081       .  S
N83          C84   1.349       .  A
N83         C226   1.396       .  S
C84          H90   1.083       .  S
C85          N86   1.359       .  A
C85          H87   1.082       .  S
N86          C88   1.361       .  A
N86         C261   1.441       .  S
C88          H89   1.081       .  S
Zr93         O94   2.433       .  S
Zr93         O95   2.418   1_554  S
Zr93         O96   2.370       .  S
Zr93         O99   2.413       .  S
Zr93        O101   2.406   1_554  S
Zr93        O102   2.373       .  S
Zr93        O103   2.442       .  S
Zr93        O104   2.408       .  S
O94         H150   0.989       .  S
O94         H158   0.989       .  S
O95         C115   1.281       .  A
O96         C117   1.261   1_554  A
O97        Zr107   2.439       .  S
O97         C716   1.282   1_455  A
O98        Zr106   2.415       .  S
O98         C117   1.269       .  A
O99         C116   1.277       .  A
O100       Zr108   2.434       .  S
O100        C115   1.284       .  A
O101       Zr106   2.405       .  S
O101       Zr108   2.320       .  S
O102       Zr108   2.396   1_554  S
O102       Zr707   2.384       .  S
O102        H737   0.966       .  S
O103       Zr106   2.412   1_554  S
O103       Zr123   2.408       .  S
O103        H140   0.962       .  S
O104       Zr123   2.421       .  S
O104       Zr707   2.343       .  S
Zr105       O130   2.433   1_554  S
Zr105       O124   2.413       .  S
Zr105       O132   2.367   1_554  S
Zr105       O720   2.426   1_454  S
Zr105       O111   2.380       .  S
Zr105       O114   2.426       .  S
Zr105       O712   2.389   1_454  S
Zr105       O713   2.341   1_455  S
Zr106       O125   2.440   1_556  S
Zr106       O118   2.431       .  S
Zr106       O119   2.429       .  S
Zr106       O112   2.408       .  S
Zr106       O113   2.391   1_556  S
Zr107       O109   2.437       .  S
Zr107       O131   2.439       .  S
Zr107       O133   2.362       .  S
Zr107       O111   2.382       .  S
Zr107       O114   2.413       .  S
Zr107       O702   2.381       .  S
Zr107       O704   2.343   1_455  S
Zr108       O110   2.438       .  S
Zr108       O734   2.432       .  S
Zr108       O735   2.437       .  S
Zr108       O112   2.427       .  S
Zr108       O711   2.371   1_556  S
O109        H146   0.990       .  S
O110        H141   0.990       .  S
O110        H155   0.990       .  S
O111       Zr708   2.372   1_554  S
O112       Zr705   2.385   1_556  S
O112        H138   0.966       .  S
O113       Zr123   2.401       .  S
O113       Zr705   2.343       .  S
O114       Zr723   2.387   1_455  S
O114        H139   0.966       .  S
C115        C231   1.432       .  S
C116        O697   1.282       .  A
C116        C270   1.433       .  S
C117        C202   1.424   1_556  S
O118        H154   0.990       .  S
O119        C121   1.281       .  A
O120       Zr705   2.427   1_556  S
O120        C121   1.277       .  A
C121        C229   1.436       .  S
O122       Zr123   2.437       .  S
O122        H151   0.990       .  S
Zr123       O126   2.438       .  S
Zr123       O127   2.437       .  S
Zr123       O128   2.443       .  S
Zr123       O714   2.386       .  S
O124        C729   1.279       .  A
O125        H142   0.989       .  S
O125        H157   0.986       .  S
O126        H143   0.990       .  S
O127        H147   0.990       .  S
O127        H756   0.990       .  S
O128        C129   1.284       .  A
C129        O724   1.279       .  A
C129        C868   1.435       .  S
O130        H149   0.991       .  S
O130        H153   0.990       .  S
O131        H145   0.990       .  S
O131        H152   0.987       .  S
O132        C136   1.261   1_556  A
O133        C136   1.264       .  A
O134       Zr708   2.432       .  S
O134        H144   0.990       .  S
O135       Zr708   2.437       .  S
O135        H148   0.990       .  S
C136        C183   1.426   1_554  S
H137        O702   0.966       .  S
H156        O727   0.989       .  S
Zr159       O160   2.434       .  S
Zr159       O161   2.413   1_554  S
Zr159       O162   2.370       .  S
Zr159       O165   2.405       .  S
Zr159       O167   2.407   1_554  S
Zr159       O168   2.372       .  S
Zr159       O169   2.437       .  S
Zr159       O170   2.408       .  S
O160        H216   0.989       .  S
O160        H224   0.988       .  S
O161        C181   1.279       .  A
O162        C183   1.260   1_554  A
O163       Zr173   2.433       .  S
O163        C182   1.282       .  A
O164       Zr172   2.413       .  S
O164        C183   1.269       .  A
O165        C182   1.276       .  A
O166       Zr174   2.444       .  S
O166        C181   1.286       .  A
O167       Zr172   2.404       .  S
O167       Zr174   2.323       .  S
O168       Zr173   2.379       .  S
O168       Zr174   2.394   1_554  S
O168        H203   0.965       .  S
O169       Zr172   2.412   1_554  S
O169       Zr189   2.406       .  S
O169        H206   0.962       .  S
O170       Zr173   2.348       .  S
O170       Zr189   2.424       .  S
Zr171       O196   2.433   1_554  S
Zr171       O190   2.421       .  S
Zr171       O198   2.370   1_554  S
Zr171       O186   2.424   1_554  S
Zr171       O177   2.378       .  S
Zr171       O178   2.394   1_554  S
Zr171       O179   2.340       .  S
Zr171       O180   2.419       .  S
Zr172       O191   2.435   1_556  S
Zr172       O184   2.433       .  S
Zr172       O185   2.414       .  S
Zr172       O178   2.411       .  S
Zr172       O179   2.394   1_556  S
Zr173       O175   2.436       .  S
Zr173       O197   2.439       .  S
Zr173       O199   2.362       .  S
Zr173       O177   2.375       .  S
Zr173       O180   2.412       .  S
Zr174       O200   2.432       .  S
Zr174       O201   2.439       .  S
Zr174       O176   2.439       .  S
Zr174       O177   2.374   1_556  S
Zr174       O178   2.430       .  S
O175        H212   0.990       .  S
O176        H207   0.990       .  S
O176        H221   0.990       .  S
O178        H204   0.966       .  S
O179       Zr189   2.399       .  S
O180       Zr189   2.391       .  S
O180        H205   0.966       .  S
C181        C228   1.435       .  S
C182        C256   1.430       .  S
O184        H220   0.990       .  S
O185        C187   1.278       .  A
O186        C187   1.277       .  A
C187        C225   1.426       .  S
O188       Zr189   2.434       .  S
O188        H217   0.990       .  S
Zr189       O192   2.437       .  S
Zr189       O193   2.437       .  S
Zr189       O194   2.437       .  S
O190        C195   1.279       .  A
O191        H208   0.989       .  S
O191        H223   0.986       .  S
O192        H209   0.990       .  S
O193        H213   0.990       .  S
O193        H222   0.990       .  S
O194        C195   1.282       .  A
C195        C253   1.434       .  S
O196        H215   0.990       .  S
O196        H219   0.990       .  S
O197        H211   0.990       .  S
O197        H218   0.987       .  S
O198        C202   1.262   1_556  A
O199        C202   1.265       .  A
O200        H210   0.990       .  S
O201        H214   0.990       .  S
C225        C226   1.201       .  T
C227        C228   1.206       .  T
C229        C230   1.207       .  T
C231        C232   1.204       .  T
C233        C234   1.412       .  A
C233        C238   1.417       .  A
C233        H239   1.080       .  S
C234        C535   1.416   1_545  A
C235        C236   1.417       .  A
C235        C534   1.417       .  A
C235        H240   1.081       .  S
C236        C537   1.411       .  A
C236        H241   1.079       .  S
C237        C238   1.417       .  A
C237        C536   1.410   1_545  A
C238        H242   1.082       .  S
C243        C244   1.417       .  A
C243        C248   1.419       .  A
C243        H249   1.081       .  S
C244        C648   1.578       .  S
C244        C545   1.413   1_545  A
C245        C246   1.418       .  A
C245        C544   1.413       .  A
C245        H250   1.079       .  S
C246        C547   1.416       .  A
C246        H251   1.081       .  S
C247        C248   1.414       .  A
C247        C546   1.416   1_545  A
C248        H252   1.079       .  S
C253        C254   1.205       .  T
C255        C256   1.203       .  T
C257        C262   1.396       .  A
C257        C558   1.405       .  A
C257        H263   1.082       .  S
C258        C259   1.405       .  A
C258        C557   1.404   1_545  A
C259        C260   1.397       .  A
C259        H264   1.082       .  S
C260        C261   1.405       .  A
C260        H265   1.082       .  S
C261        C562   1.406   1_545  A
C262        C561   1.406       .  A
C262        H266   1.082       .  S
C267        C268   1.206       .  T
C268        C729   1.435       .  S
C269        C270   1.205       .  T
C271        C276   1.416       .  A
C271        C572   1.416       .  A
C271        H277   1.081       .  S
C272        C273   1.412       .  A
C272        C571   1.417       .  A
C273        C274   1.417       .  A
C273        H278   1.081       .  S
C274        C575   1.417       .  A
C274        H279   1.079       .  S
C275        C276   1.413       .  A
C275        C574   1.415   1_545  A
C276        H280   1.081       .  S
C281        C282   1.413       .  A
C281        C286   1.418       .  A
C281        H287   1.080       .  S
C282        C583   1.416       .  A
C283        C284   1.418       .  A
C283        C582   1.417       .  A
C283        H288   1.079       .  S
C284        C285   1.413       .  A
C284        H289   1.079       .  S
C285        C586   1.416   1_545  A
C286        C585   1.417       .  A
C286        H290   1.081       .  S
C291        C296   1.397       .  A
C291        C892   1.405   1_455  A
C291        H297   1.082       .  S
C292        C891   1.405       .  A
C292        C593   1.405   1_545  A
C293        C294   1.397       .  A
C293        C592   1.406       .  A
C293        H298   1.082       .  S
C294        C595   1.404       .  A
C294        H299   1.082       .  S
C295        C594   1.405   1_545  A
C295        C896   1.406       .  A
C296        C895   1.407   1_455  A
C296        H300   1.081       .  S
C301        C305   1.534       .  S
C301        C304   1.549       .  S
C301        C575   1.574       .  S
C302        C306   1.554   1_545  S
C302        C308   1.537       .  S
C302        C582   1.573       .  S
C303        C311   1.374       .  A
C303        C906   1.411       .  A
C304        C315   1.381       .  A
C304        C907   1.411       .  A
C305        C319   1.372       .  A
C305        C608   1.401       .  A
C306        C903   1.411   1_455  A
C306        C309   1.388       .  A
C307        C904   1.409   1_455  A
C307        C313   1.381       .  A
C308        C605   1.400   1_455  A
C308        C316   1.374       .  A
C309        N310   1.358       .  A
C309        H322   1.082       .  S
N310        C911   1.349   1_455  A
N310        C567   1.403       .  S
C311        N910   1.349       .  A
C311        H312   1.081       .  S
C313        N914   1.353   1_455  A
C313        H323   1.081       .  S
N314        C913   1.352       .  A
N314        C315   1.354       .  A
N314        C569   1.401       .  S
C315        H321   1.081       .  S
C316        N617   1.362   1_455  A
C316        H318   1.082       .  S
N317        C616   1.360       .  A
N317        C319   1.360       .  A
N317        C592   1.439       .  S
C319        H320   1.082       .  S
C324        C328   1.537       .  S
C324        C327   1.552       .  S
C324        C585   1.575       .  S
C325        C329   1.553   1_545  S
C325        C331   1.534       .  S
C325        C572   1.569       .  S
C326        C334   1.375       .  A
C326        C329   1.410       .  A
C327        C338   1.383       .  A
C327        C330   1.412       .  A
C328        C342   1.374       .  A
C329        C332   1.388       .  A
C330        C336   1.376       .  A
C331        C339   1.373       .  A
C332        N333   1.357       .  A
C332        H345   1.081       .  S
N333        C334   1.350       .  A
N333        C554   1.404       .  S
C334        H335   1.082       .  S
C336        N337   1.350       .  A
C336        H346   1.081       .  S
N337        C338   1.355       .  A
N337        C555   1.401       .  S
C338        H344   1.081       .  S
C339        H341   1.082       .  S
N340        C342   1.362       .  A
N340        C558   1.439       .  S
C342        H343   1.082       .  S
C347        C349   1.557       .  S
C347        C351   1.540       .  S
C347        C534   1.570       .  S
C348        C352   1.543       .  S
C348        C354   1.549       .  S
C348       C1144   1.576       .  S
C349        C357   1.390       .  A
C349        C352   1.410       .  A
C350        C361   1.374       .  A
C350        C353   1.406       .  A
C351        C365   1.377       .  A
C351        C354   1.406       .  A
C352        C355   1.374       .  A
C353        C359   1.381       .  A
C354        C362   1.380       .  A
C355        N356   1.349       .  A
C355        H968   1.081       .  S
N356        C357   1.359       .  A
N356        C532   1.405       .  S
C357        H358   1.081       .  S
C359        N360   1.358       .  A
C359        H969   1.082       .  S
N360        C361   1.350       .  A
N360        C530   1.400       .  S
C361        H367   1.082       .  S
C362        N363   1.359       .  A
C362        H964   1.079       .  S
N363        C365   1.359       .  A
N363        C595   1.441       .  S
H364        C962   1.080   1_455  S
C365        H366   1.082       .  S
H368        C955   1.081   1_455  S
H369        C959   1.082   1_455  S
C370        C372   1.555       .  S
C370        C374   1.544       .  S
C370        C547   1.572       .  S
C371        C375   1.538       .  S
C371        C377   1.535       .  S
C371        C537   1.570       .  S
C372        C380   1.387       .  A
C372        C375   1.410       .  A
C373        C384   1.371       .  A
C373        C376   1.409       .  A
C374        C388   1.376       .  A
C374        C377   1.402       .  A
C375        C378   1.370       .  A
C376        C382   1.384       .  A
C377        C385   1.373       .  A
C378        N379   1.347       .  A
C378        H391   1.082       .  S
N379        C380   1.358       .  A
N379        C527   1.399       .  S
C380        H381   1.081       .  S
C382        N383   1.357       .  A
C382        H392   1.081       .  S
N383        C384   1.350       .  A
N383        C526   1.400       .  S
C384        H390   1.083       .  S
C385        N386   1.360       .  A
C385        H387   1.082       .  S
N386        C388   1.360       .  A
N386        C561   1.441       .  S
C388        H389   1.081       .  S
Zr393       O394   2.434       .  S
Zr393       O395   2.428   1_554  S
Zr393       O396   2.370   1_554  S
Zr393       O399   2.415       .  S
Zr393       O401   2.409   1_554  S
Zr393       O402   2.374       .  S
Zr393       O403   2.442       .  S
Zr393       O404   2.410       .  S
O394        H450   0.989       .  S
O394        H458   0.988       .  S
O395        C415   1.283       .  A
O396        C417   1.261       .  A
O397       Zr407   2.452       .  S
O397       C1016   1.285   1_455  A
O398       Zr406   2.416       .  S
O398        C417   1.270       .  A
O399        C416   1.278       .  A
O400       Zr408   2.444       .  S
O400        C415   1.285       .  A
O401       Zr406   2.407       .  S
O401       Zr408   2.324       .  S
O402      Zr1007   2.385       .  S
O402       Zr408   2.396   1_554  S
O402       H1037   0.965       .  S
O403       Zr406   2.411   1_554  S
O403       Zr423   2.407       .  S
O403        H440   0.961       .  S
O404      Zr1007   2.339       .  S
O404       Zr423   2.423       .  S
Zr405       O430   2.434   1_554  S
Zr405       O424   2.413       .  S
Zr405       O432   2.365   1_554  S
Zr405      O1020   2.426   1_454  S
Zr405       O411   2.381       .  S
Zr405      O1012   2.389   1_454  S
Zr405      O1013   2.339   1_455  S
Zr405       O414   2.424       .  S
Zr406       O425   2.437   1_556  S
Zr406       O418   2.432       .  S
Zr406       O419   2.433       .  S
Zr406       O412   2.405       .  S
Zr406       O413   2.392   1_556  S
Zr407       O409   2.437       .  S
Zr407       O431   2.439       .  S
Zr407       O433   2.366       .  S
Zr407      O1002   2.379       .  S
Zr407      O1004   2.344   1_455  S
Zr407       O411   2.382       .  S
Zr407       O414   2.416       .  S
Zr408      O1034   2.431       .  S
Zr408      O1035   2.438       .  S
Zr408       O410   2.438       .  S
Zr408      O1011   2.372   1_556  S
Zr408       O412   2.431       .  S
O409        H446   0.990       .  S
O410        H441   0.990       .  S
O410        H455   0.990       .  S
O411      Zr1008   2.371   1_554  S
O412      Zr1005   2.390   1_556  S
O412        H438   0.966       .  S
O413      Zr1005   2.343       .  S
O413       Zr423   2.400       .  S
O414      Zr1023   2.387   1_455  S
O414        H439   0.966       .  S
C415        C531   1.441       .  S
C416        O997   1.281       .  A
C416        C570   1.433       .  S
C417        C502   1.425       .  S
O418        H454   0.990       .  S
O419        C421   1.282       .  A
O420      Zr1005   2.418   1_556  S
O420        C421   1.275       .  A
C421        C529   1.433       .  S
O422       Zr423   2.436       .  S
O422        H451   0.990       .  S
Zr423       O426   2.437       .  S
Zr423       O427   2.438       .  S
Zr423       O428   2.450       .  S
Zr423      O1014   2.390       .  S
O424       C1029   1.278       .  A
O425        H442   0.989       .  S
O425        H457   0.986       .  S
O426        H443   0.990       .  S
O427        H447   0.990       .  S
O427       H1056   0.990       .  S
O428        C429   1.286       .  A
C429       O1024   1.280       .  A
C429       C1168   1.439       .  S
O430        H449   0.990       .  S
O430        H453   0.991       .  S
O431        H445   0.990       .  S
O431        H452   0.987       .  S
O432        C436   1.261   1_556  A
O433        C436   1.265       .  A
O434      Zr1008   2.432       .  S
O434        H444   0.990       .  S
O435      Zr1008   2.437       .  S
O435        H448   0.990       .  S
C436        C483   1.425   1_554  S
H437       O1002   0.965       .  S
H456       O1027   0.990       .  S
Zr459       O460   2.434       .  S
Zr459       O461   2.410   1_554  S
Zr459       O462   2.375       .  S
Zr459       O465   2.403       .  S
Zr459       O467   2.404   1_554  S
Zr459       O468   2.377       .  S
Zr459       O469   2.435       .  S
Zr459       O470   2.409       .  S
O460        H516   0.989       .  S
O460        H524   0.988       .  S
O461        C481   1.279       .  A
O462        C483   1.261   1_554  A
O463       Zr473   2.445       .  S
O463        C482   1.284       .  A
O464       Zr472   2.415       .  S
O464        C483   1.269       .  A
O465        C482   1.276       .  A
O466       Zr474   2.441       .  S
O466        C481   1.286       .  A
O467       Zr472   2.399       .  S
O467       Zr474   2.321       .  S
O468       Zr473   2.375       .  S
O468       Zr474   2.392   1_554  S
O468        H503   0.966       .  S
O469       Zr472   2.412   1_554  S
O469       Zr489   2.410       .  S
O469        H506   0.962       .  S
O470       Zr473   2.348       .  S
O470       Zr489   2.425       .  S
Zr471       O496   2.432   1_554  S
Zr471       O490   2.426       .  S
Zr471       O498   2.367   1_554  S
Zr471       O486   2.429   1_554  S
Zr471       O477   2.385       .  S
Zr471       O478   2.393   1_554  S
Zr471       O479   2.339       .  S
Zr471       O480   2.422       .  S
Zr472       O491   2.436   1_556  S
Zr472       O484   2.431       .  S
Zr472       O485   2.422       .  S
Zr472       O478   2.408       .  S
Zr472       O479   2.395   1_556  S
Zr473       O475   2.437       .  S
Zr473       O497   2.440       .  S
Zr473       O499   2.370       .  S
Zr473       O477   2.377       .  S
Zr473       O480   2.420       .  S
Zr474       O500   2.431       .  S
Zr474       O501   2.439       .  S
Zr474       O476   2.434       .  S
Zr474       O477   2.373   1_556  S
Zr474       O478   2.430       .  S
O475        H512   0.990       .  S
O476        H507   0.990       .  S
O476        H521   0.990       .  S
O478        H504   0.965       .  S
O479       Zr489   2.404       .  S
O480       Zr489   2.392       .  S
O480        H505   0.966       .  S
C481        C528   1.432       .  S
C482        C556   1.433       .  S
O484        H520   0.990       .  S
O485        C487   1.279       .  A
O486        C487   1.278       .  A
C487        C525   1.432       .  S
O488       Zr489   2.434       .  S
O488        H517   0.990       .  S
Zr489       O492   2.436       .  S
Zr489       O493   2.438       .  S
Zr489       O494   2.442       .  S
O490        C495   1.280       .  A
O491        H508   0.989       .  S
O491        H523   0.986       .  S
O492        H509   0.990       .  S
O493        H513   0.990       .  S
O493        H522   0.990       .  S
O494        C495   1.283       .  A
C495        C553   1.439       .  S
O496        H515   0.991       .  S
O496        H519   0.990       .  S
O497        H511   0.990       .  S
O497        H518   0.987       .  S
O498        C502   1.261       .  A
O499        C502   1.267   1_554  A
O500        H510   0.990       .  S
O501        H514   0.990       .  S
C525        C526   1.204       .  T
C527        C528   1.204       .  T
C529        C530   1.205       .  T
C531        C532   1.209       .  T
C533        C534   1.411       .  A
C533        C538   1.415       .  A
C533        H539   1.079       .  S
C535        C536   1.415       .  A
C535        H540   1.080       .  S
C536        H541   1.078       .  S
C537        C538   1.417       .  A
C538        H542   1.081       .  S
C543        C544   1.416       .  A
C543        C548   1.418       .  A
C543        H549   1.081       .  S
C544        C948   1.576       .  S
C545        C546   1.418       .  A
C545        H550   1.078       .  S
C546        H551   1.081       .  S
C547        C548   1.413       .  A
C548        H552   1.079       .  S
C553        C554   1.208       .  T
C555        C556   1.205       .  T
C557        C562   1.396       .  A
C557        H563   1.082       .  S
C558        C559   1.404       .  A
C559        C560   1.396       .  A
C559        H564   1.082       .  S
C560        C561   1.406       .  A
C560        H565   1.082       .  S
C562        H566   1.082       .  S
C567        C568   1.207       .  T
C568       C1029   1.438       .  S
C569        C570   1.205       .  T
C571        C576   1.418       .  A
C571        H577   1.080       .  S
C572        C573   1.411   1_545  A
C573        C574   1.415       .  A
C573        H578   1.079       .  S
C574        H579   1.079       .  S
C575        C576   1.413       .  A
C576        H580   1.081       .  S
C581        C582   1.413   1_565  A
C581        C586   1.418       .  A
C581        H587   1.081       .  S
C583        C584   1.418       .  A
C583        H588   1.080       .  S
C584        C585   1.413       .  A
C584        H589   1.079       .  S
C586        H590   1.081       .  S
C591       C1192   1.404   1_455  A
C591        C596   1.395       .  A
C591        H597   1.082       .  S
C592       C1191   1.404       .  A
C593        C594   1.396       .  A
C593        H598   1.082       .  S
C594        H599   1.082       .  S
C595       C1196   1.407       .  A
C596       C1195   1.406   1_455  A
C596        H600   1.081       .  S
C601        C903   1.544   1_545  S
C601        C605   1.533       .  S
C601        C604   1.546       .  S
C601        C875   1.572       .  S
C602        C606   1.553       .  S
C602        C608   1.535       .  S
C602        C907   1.547       .  S
C602        C882   1.571       .  S
C603        C901   1.545       .  S
C603        C611   1.375       .  A
C604        C615   1.380       .  A
C605        C619   1.371       .  A
C606        C609   1.387       .  A
C607        C902   1.550   1_545  S
C607        C613   1.380       .  A
C608        C616   1.374       .  A
C609        N610   1.356       .  A
C609        H622   1.081       .  S
N610        C867   1.401       .  S
C611        H612   1.081       .  S
C613        H623   1.081       .  S
N614        C615   1.354       .  A
N614        C869   1.400       .  S
C615        H621   1.082       .  S
C616        H618   1.082       .  S
N617        C619   1.360       .  A
N617        C892   1.441       .  S
C619        H620   1.082       .  S
C624        C926   1.544   1_545  S
C624        C628   1.535       .  S
C624        C627   1.553       .  S
C624        C885   1.574       .  S
C625        C629   1.551       .  S
C625        C631   1.534       .  S
C625        C930   1.545       .  S
C625        C872   1.568       .  S
C626        C924   1.547       .  S
C626        C634   1.376       .  A
C626        C629   1.409       .  A
C627        C638   1.385       .  A
C627        C630   1.411       .  A
C628        C642   1.372       .  A
C628        C931   1.403   1_545  A
C629        C632   1.386       .  A
C630        C925   1.545   1_545  S
C630        C636   1.377       .  A
C631        C928   1.402       .  A
C631        C639   1.373       .  A
C632        N633   1.357       .  A
C632        H645   1.081       .  S
N633        C634   1.351       .  A
N633        C854   1.404       .  S
C634        H635   1.081       .  S
C636        N637   1.349       .  A
C636        H646   1.081       .  S
N637        C638   1.356       .  A
N637        C855   1.402       .  S
C638        H644   1.081       .  S
C639        N940   1.359       .  A
C639        H641   1.082       .  S
N640        C939   1.358   1_545  A
N640        C642   1.360       .  A
N640        C858   1.434       .  S
C642        H643   1.082       .  S
C647        C649   1.555       .  S
C647        C651   1.540   1_545  S
C647        C950   1.539   1_545  S
C647        C834   1.573       .  S
C648        C652   1.544   1_455  S
C648        C654   1.547   1_445  S
C648        C953   1.544   1_445  S
C649        C657   1.389       .  A
C649        C652   1.411       .  A
C650        C947   1.540       .  S
C650        C661   1.375       .  A
C650        C653   1.406       .  A
C651        C665   1.375       .  A
C651        C654   1.407       .  A
C652        C655   1.373       .  A
C653        C948   1.542   1_655  S
C653        C659   1.380       .  A
C654        C662   1.379   1_655  A
C655        N656   1.348       .  A
N656        C657   1.359       .  A
N656        C832   1.404       .  S
C657        H658   1.082       .  S
C659        N660   1.357       .  A
N660        C661   1.350       .  A
N660        C830   1.400       .  S
C661        H667   1.081       .  S
C662        N663   1.360   1_455  A
N663        C665   1.359       .  A
N663        C895   1.442   1_565  S
C665        H666   1.082   1_565  S
C670        C672   1.552       .  S
C670        C674   1.543       .  S
C670        C973   1.532   1_545  S
C670        C847   1.569       .  S
C671        C675   1.537       .  S
C671        C677   1.534       .  S
C671        C976   1.552   1_545  S
C671        C837   1.573       .  S
C672        C680   1.386       .  A
C672        C675   1.410       .  A
C673        C970   1.532       .  S
C673        C684   1.370       .  A
C673        C676   1.409       .  A
C674        C688   1.375       .  A
C674        C677   1.404       .  A
C675        C678   1.369       .  A
C676        C971   1.553       .  S
C676        C682   1.384       .  A
C677        C685   1.370       .  A
C678        N679   1.346       .  A
C678        H691   1.082       .  S
N679        C680   1.357       .  A
N679        C827   1.397       .  S
C680        H681   1.081       .  S
C682        N683   1.358       .  A
C682        H692   1.081       .  S
N683        C684   1.349       .  A
N683        C826   1.398       .  S
C684        H690   1.083       .  S
C685        N686   1.358       .  A
C685        H687   1.082       .  S
N686        C688   1.360       .  A
N686        C861   1.436       .  S
C688        H689   1.081       .  S
Zr693       O694   2.434       .  S
Zr693       O695   2.426   1_554  S
Zr693       O696   2.370   1_554  S
Zr693       O699   2.409       .  S
Zr693       O701   2.406   1_554  S
Zr693       O702   2.374   1_655  S
Zr693       O703   2.440       .  S
Zr693       O704   2.413       .  S
O694        H750   0.989       .  S
O694        H758   0.988       .  S
O695        C715   1.282       .  A
O696        C717   1.261       .  A
O697       Zr707   2.436       .  S
O698       Zr706   2.416       .  S
O698        C717   1.270       .  A
O699        C716   1.277       .  A
O700       Zr708   2.440   1_655  S
O700        C715   1.285       .  A
O701       Zr706   2.404       .  S
O701       Zr708   2.324   1_655  S
O702       Zr708   2.395   1_554  S
O703       Zr706   2.409   1_554  S
O703       Zr723   2.406       .  S
O703        H740   0.961       .  S
O704       Zr723   2.426       .  S
Zr705       O730   2.431   1_554  S
Zr705       O724   2.415       .  S
Zr705       O732   2.379   1_554  S
Zr705       O711   2.374       .  S
Zr705       O714   2.419       .  S
Zr706       O725   2.437   1_556  S
Zr706       O718   2.431       .  S
Zr706       O719   2.424       .  S
Zr706       O712   2.407       .  S
Zr706       O713   2.392   1_556  S
Zr707       O709   2.438       .  S
Zr707       O731   2.439       .  S
Zr707       O733   2.352       .  S
Zr707       O711   2.383       .  S
Zr707       O714   2.413       .  S
Zr708       O710   2.438   1_455  S
Zr708       O712   2.428   1_455  S
O709        H746   0.990       .  S
O710        H741   0.990   1_655  S
O710        H755   0.990       .  S
O712        H738   0.966       .  S
O713       Zr723   2.399       .  S
O714        H739   0.966       .  S
C715        C831   1.439       .  S
C716        C870   1.433       .  S
C717        C802   1.425       .  S
O718        H754   0.990       .  S
O719        C721   1.280       .  A
O720        C721   1.277       .  A
C721        C829   1.432       .  S
O722       Zr723   2.435       .  S
O722        H751   0.990       .  S
Zr723       O726   2.437       .  S
Zr723       O727   2.437       .  S
Zr723       O728   2.448       .  S
O725        H742   0.989       .  S
O725        H757   0.986       .  S
O726        H743   0.990       .  S
O727        H747   0.990       .  S
O728        C729   1.284   1_655  A
O730        H749   0.991       .  S
O730        H753   0.990       .  S
O731        H745   0.989       .  S
O731        H752   0.988       .  S
O732        C736   1.263   1_556  A
O733        C736   1.262       .  A
O734        H744   0.990       .  S
O735        H748   0.990       .  S
C736        C783   1.426   1_554  S
Zr759       O760   2.435       .  S
Zr759       O761   2.409   1_554  S
Zr759       O762   2.384       .  S
Zr759       O765   2.405       .  S
Zr759       O767   2.402   1_554  S
Zr759       O768   2.377       .  S
Zr759       O769   2.433       .  S
Zr759       O770   2.408       .  S
O760        H816   0.989       .  S
O760        H824   0.988       .  S
O761        C781   1.279       .  A
O762        C783   1.263   1_554  A
O763       Zr773   2.448       .  S
O763        C782   1.285       .  A
O764       Zr772   2.411       .  S
O764        C783   1.268       .  A
O765        C782   1.276       .  A
O766       Zr774   2.438       .  S
O766        C781   1.284       .  A
O767       Zr772   2.400       .  S
O767       Zr774   2.318       .  S
O768       Zr773   2.379       .  S
O768       Zr774   2.395   1_554  S
O768        H803   0.966       .  S
O769       Zr772   2.412   1_554  S
O769       Zr789   2.410       .  S
O769        H806   0.961       .  S
O770       Zr773   2.347       .  S
O770       Zr789   2.419       .  S
Zr771       O796   2.431   1_554  S
Zr771       O790   2.424       .  S
Zr771       O798   2.365   1_554  S
Zr771       O786   2.424   1_554  S
Zr771       O777   2.383       .  S
Zr771       O778   2.389   1_554  S
Zr771       O779   2.341       .  S
Zr771       O780   2.421       .  S
Zr772       O791   2.441   1_556  S
Zr772       O784   2.429       .  S
Zr772       O785   2.418       .  S
Zr772       O778   2.406       .  S
Zr772       O779   2.395   1_556  S
Zr773       O775   2.439       .  S
Zr773       O797   2.441       .  S
Zr773       O799   2.369       .  S
Zr773       O777   2.377       .  S
Zr773       O780   2.422       .  S
Zr774       O800   2.430       .  S
Zr774       O801   2.437       .  S
Zr774       O776   2.439       .  S
Zr774       O777   2.369   1_556  S
Zr774       O778   2.429       .  S
O775        H812   0.990       .  S
O776        H807   0.990       .  S
O776        H821   0.990       .  S
O778        H804   0.966       .  S
O779       Zr789   2.409       .  S
O780       Zr789   2.390       .  S
O780        H805   0.966       .  S
C781        C828   1.429       .  S
C782        C856   1.435       .  S
O784        H820   0.990       .  S
O785        C787   1.278       .  A
O786        C787   1.277       .  A
C787        C825   1.429       .  S
O788       Zr789   2.436       .  S
O788        H817   0.990       .  S
Zr789       O792   2.437       .  S
Zr789       O793   2.439       .  S
Zr789       O794   2.441       .  S
O790        C795   1.280       .  A
O791        H808   0.989       .  S
O791        H823   0.986       .  S
O792        H809   0.990       .  S
O793        H813   0.990       .  S
O793        H822   0.990       .  S
O794        C795   1.283       .  A
C795        C853   1.439       .  S
O796        H815   0.991       .  S
O796        H819   0.990       .  S
O797        H811   0.990       .  S
O797        H818   0.986       .  S
O798        C802   1.260       .  A
O799        C802   1.266   1_554  A
O800        H810   0.990       .  S
O801        H814   0.990       .  S
C825        C826   1.203       .  T
C827        C828   1.202       .  T
C829        C830   1.204       .  T
C831        C832   1.208       .  T
C833        C834   1.411       .  A
C833        C838   1.418       .  A
C833        H839   1.080       .  S
C834       C1135   1.418   1_545  A
C835       C1134   1.417       .  A
C835        C836   1.416       .  A
C835        H840   1.080       .  S
C836       C1137   1.410       .  A
C836        H841   1.078       .  S
C837       C1136   1.410   1_545  A
C837        C838   1.419       .  A
C838        H842   1.082       .  S
C843        C844   1.415       .  A
C843        C848   1.417       .  A
C843        H849   1.081       .  S
C844       C1145   1.414   1_545  A
C845       C1144   1.413       .  A
C845        C846   1.416       .  A
C845        H850   1.078       .  S
C846       C1147   1.415       .  A
C846        H851   1.080       .  S
C847       C1146   1.415   1_545  A
C847        C848   1.414       .  A
C848        H852   1.079       .  S
C853        C854   1.208       .  T
C855        C856   1.206       .  T
C857       C1158   1.406       .  A
C857        C862   1.399       .  A
C857        H863   1.083       .  S
C858       C1157   1.403   1_545  A
C858        C859   1.404       .  A
C859        C860   1.394       .  A
C859        H864   1.082       .  S
C860        C861   1.404       .  A
C860        H865   1.082       .  S
C861       C1162   1.405   1_545  A
C862       C1161   1.406       .  A
C862        H866   1.082       .  S
C867        C868   1.206       .  T
C869        C870   1.205       .  T
C871       C1172   1.416   1_545  A
C871        C876   1.416       .  A
C871        H877   1.080       .  S
C872       C1171   1.416       .  A
C872        C873   1.411       .  A
C873        C874   1.416       .  A
C873        H878   1.081       .  S
C874       C1175   1.417       .  A
C874        H879   1.079       .  S
C875       C1174   1.417   1_545  A
C875        C876   1.412       .  A
C876        H880   1.081       .  S
C881        C882   1.413       .  A
C881        C886   1.416       .  A
C881        H887   1.079       .  S
C882       C1183   1.416       .  A
C883       C1182   1.417       .  A
C883        C884   1.417       .  A
C883        H888   1.080       .  S
C884        C885   1.412       .  A
C884        H889   1.079       .  S
C885       C1186   1.417   1_545  A
C886       C1185   1.415       .  A
C886        H890   1.081       .  S
C891        C896   1.396       .  A
C891        H897   1.082       .  S
C892       C1193   1.406   1_545  A
C893       C1192   1.406       .  A
C893        C894   1.398       .  A
C893        H898   1.082       .  S
C894       C1195   1.405       .  A
C894        H899   1.082       .  S
C895       C1194   1.405   1_545  A
C896        H900   1.082       .  S
C901        C905   1.533       .  S
C901        C904   1.549       .  S
C901       C1175   1.570       .  S
C902        C906   1.555       .  S
C902        C908   1.535       .  S
C902       C1182   1.572   1_565  S
C903        C911   1.374       .  A
C904        C915   1.384       .  A
C905        C919   1.373       .  A
C906        C909   1.388       .  A
C907        C913   1.378       .  A
C908        C916   1.373       .  A
C909        N910   1.359       .  A
C909        H922   1.081       .  S
N910       C1167   1.404       .  S
C911        H912   1.081       .  S
C913        H923   1.082       .  S
N914        C915   1.357       .  A
N914       C1169   1.406       .  S
C915        H921   1.082       .  S
C916        H918   1.082       .  S
N917        C919   1.360       .  A
N917       C1192   1.441       .  S
C919        H920   1.082       .  S
C924        C928   1.540       .  S
C924        C927   1.550       .  S
C924       C1185   1.572       .  S
C925        C929   1.550       .  S
C925        C931   1.533       .  S
C925       C1172   1.572       .  S
C926        C934   1.374       .  A
C926        C929   1.411       .  A
C927        C938   1.384       .  A
C927        C930   1.410       .  A
C928        C942   1.376       .  A
C929        C932   1.385       .  A
C930        C936   1.377       .  A
C931        C939   1.371       .  A
C932        N933   1.356       .  A
C932        H945   1.081       .  S
N933        C934   1.350       .  A
N933       C1154   1.401       .  S
C934        H935   1.082       .  S
C936        N937   1.349       .  A
C936        H946   1.081       .  S
N937        C938   1.355       .  A
N937       C1155   1.401       .  S
C938        H944   1.081       .  S
C939        H941   1.082   1_565  S
N940        C942   1.362       .  A
N940       C1158   1.439       .  S
C942        H943   1.082       .  S
C947        C949   1.553       .  S
C947        C951   1.539       .  S
C947       C1134   1.572       .  S
C948        C952   1.543   1_455  S
C948        C954   1.547   1_455  S
C949        C957   1.387       .  A
C949        C952   1.411       .  A
C950        C961   1.374       .  A
C950        C953   1.406       .  A
C951        C965   1.375       .  A
C951        C954   1.406       .  A
C952        C955   1.372       .  A
C953        C959   1.382       .  A
C954        C962   1.378       .  A
C955        N956   1.348       .  A
N956        C957   1.358       .  A
N956       C1132   1.401       .  S
C957        H958   1.081       .  S
C959        N960   1.359       .  A
N960        C961   1.349       .  A
N960       C1130   1.401       .  S
C961        H967   1.081       .  S
C962        N963   1.360       .  A
N963        C965   1.359       .  A
N963       C1195   1.441       .  S
C965        H966   1.082       .  S
C970        C972   1.553       .  S
C970        C974   1.546       .  S
C970       C1147   1.571       .  S
C971        C975   1.540       .  S
C971        C977   1.536       .  S
C971       C1137   1.572       .  S
C972        C980   1.387       .  A
C972        C975   1.410       .  A
C973        C984   1.370       .  A
C973        C976   1.410       .  A
C974        C988   1.377       .  A
C974        C977   1.404       .  A
C975        C978   1.371       .  A
C976        C982   1.383       .  A
C977        C985   1.375       .  A
C978        N979   1.348       .  A
C978        H991   1.082       .  S
N979        C980   1.358       .  A
N979       C1127   1.401       .  S
C980        H981   1.082       .  S
C982        N983   1.358       .  A
C982        H992   1.081       .  S
N983        C984   1.349       .  A
N983       C1126   1.399       .  S
C984        H990   1.083       .  S
C985        N986   1.359       .  A
C985        H987   1.082       .  S
N986        C988   1.360       .  A
N986       C1161   1.440       .  S
C988        H989   1.081       .  S
Zr993       O994   2.433       .  S
Zr993       O995   2.422   1_554  S
Zr993       O996   2.373   1_554  S
Zr993       O999   2.415       .  S
Zr993      O1001   2.407   1_554  S
Zr993      O1002   2.372   1_655  S
Zr993      O1003   2.443       .  S
Zr993      O1004   2.415       .  S
O994       H1050   0.989       .  S
O994       H1058   0.988       .  S
O995       C1015   1.282       .  A
O996       C1017   1.261       .  A
O997      Zr1007   2.431       .  S
O998      Zr1006   2.418       .  S
O998       C1017   1.270       .  A
O999       C1016   1.278       .  A
O1000     Zr1008   2.436   1_655  S
O1000      C1015   1.284       .  A
O1001     Zr1006   2.403       .  S
O1001     Zr1008   2.321   1_655  S
O1002     Zr1008   2.396   1_554  S
O1003     Zr1006   2.412   1_554  S
O1003     Zr1023   2.412       .  S
O1003      H1040   0.961       .  S
O1004     Zr1023   2.431       .  S
Zr1005     O1030   2.432   1_554  S
Zr1005     O1024   2.418       .  S
Zr1005     O1032   2.370   1_554  S
Zr1005     O1011   2.378       .  S
Zr1005     O1014   2.417       .  S
Zr1006     O1025   2.437   1_556  S
Zr1006     O1018   2.431       .  S
Zr1006     O1019   2.428       .  S
Zr1006     O1012   2.409       .  S
Zr1006     O1013   2.394   1_556  S
Zr1007     O1009   2.436       .  S
Zr1007     O1031   2.440       .  S
Zr1007     O1033   2.356       .  S
Zr1007     O1011   2.383       .  S
Zr1007     O1014   2.410       .  S
Zr1008     O1010   2.439   1_455  S
Zr1008     O1012   2.428   1_455  S
O1009      H1046   0.990       .  S
O1010      H1041   0.990   1_655  S
O1010      H1055   0.990       .  S
O1012      H1038   0.966       .  S
O1013     Zr1023   2.400       .  S
O1014      H1039   0.965       .  S
C1015      C1131   1.435       .  S
C1016      C1170   1.442       .  S
C1017      C1102   1.424       .  S
O1018      H1054   0.990       .  S
O1019      C1021   1.281       .  A
O1020      C1021   1.276       .  A
C1021      C1129   1.434       .  S
O1022     Zr1023   2.436       .  S
O1022      H1051   0.990       .  S
Zr1023     O1026   2.437       .  S
Zr1023     O1027   2.437       .  S
Zr1023     O1028   2.455       .  S
O1025      H1042   0.989       .  S
O1025      H1057   0.986       .  S
O1026      H1043   0.990       .  S
O1027      H1047   0.990       .  S
O1028      C1029   1.286   1_655  A
O1030      H1049   0.991       .  S
O1030      H1053   0.990       .  S
O1031      H1045   0.990       .  S
O1031      H1052   0.988       .  S
O1032      C1036   1.261   1_556  A
O1033      C1036   1.262       .  A
O1034      H1044   0.990       .  S
O1035      H1048   0.990       .  S
C1036      C1083   1.424   1_554  S
Zr1059     O1060   2.435       .  S
Zr1059     O1061   2.414   1_554  S
Zr1059     O1062   2.375       .  S
Zr1059     O1065   2.404       .  S
Zr1059     O1067   2.401   1_554  S
Zr1059     O1068   2.375       .  S
Zr1059     O1069   2.437       .  S
Zr1059     O1070   2.409       .  S
O1060      H1116   0.989       .  S
O1060      H1124   0.988       .  S
O1061      C1081   1.280       .  A
O1062      C1083   1.261   1_554  A
O1063     Zr1073   2.444       .  S
O1063      C1082   1.284       .  A
O1064     Zr1072   2.415       .  S
O1064      C1083   1.269       .  A
O1065      C1082   1.276       .  A
O1066     Zr1074   2.441       .  S
O1066      C1081   1.286       .  A
O1067     Zr1072   2.396       .  S
O1067     Zr1074   2.314       .  S
O1068     Zr1073   2.379       .  S
O1068     Zr1074   2.395   1_554  S
O1068      H1103   0.965       .  S
O1069     Zr1072   2.411   1_554  S
O1069     Zr1089   2.408       .  S
O1069      H1106   0.962       .  S
O1070     Zr1073   2.346       .  S
O1070     Zr1089   2.424       .  S
Zr1071     O1096   2.431   1_554  S
Zr1071     O1090   2.421       .  S
Zr1071     O1098   2.368   1_554  S
Zr1071     O1086   2.428   1_554  S
Zr1071     O1077   2.381       .  S
Zr1071     O1078   2.391   1_554  S
Zr1071     O1079   2.341       .  S
Zr1071     O1080   2.422       .  S
Zr1072     O1091   2.439   1_556  S
Zr1072     O1084   2.431       .  S
Zr1072     O1085   2.416       .  S
Zr1072     O1078   2.410       .  S
Zr1072     O1079   2.395   1_556  S
Zr1073     O1075   2.436       .  S
Zr1073     O1097   2.439       .  S
Zr1073     O1099   2.366       .  S
Zr1073     O1077   2.376       .  S
Zr1073     O1080   2.416       .  S
Zr1074     O1100   2.432       .  S
Zr1074     O1101   2.438       .  S
Zr1074     O1076   2.437       .  S
Zr1074     O1077   2.371   1_556  S
Zr1074     O1078   2.432       .  S
O1075      H1112   0.990       .  S
O1076      H1107   0.990       .  S
O1076      H1121   0.989       .  S
O1078      H1104   0.966       .  S
O1079     Zr1089   2.406       .  S
O1080     Zr1089   2.391       .  S
O1080      H1105   0.966       .  S
C1081      C1128   1.434       .  S
C1082      C1156   1.433       .  S
O1084      H1120   0.990       .  S
O1085      C1087   1.278       .  A
O1086      C1087   1.277       .  A
C1087      C1125   1.430       .  S
O1088     Zr1089   2.435       .  S
O1088      H1117   0.990       .  S
Zr1089     O1092   2.436       .  S
Zr1089     O1093   2.439       .  S
Zr1089     O1094   2.437       .  S
O1090      C1095   1.279       .  A
O1091      H1108   0.989       .  S
O1091      H1123   0.986       .  S
O1092      H1109   0.990       .  S
O1093      H1113   0.990       .  S
O1093      H1122   0.990       .  S
O1094      C1095   1.282       .  A
C1095      C1153   1.435       .  S
O1096      H1115   0.990       .  S
O1096      H1119   0.991       .  S
O1097      H1111   0.990       .  S
O1097      H1118   0.987       .  S
O1098      C1102   1.261       .  A
O1099      C1102   1.265   1_554  A
O1100      H1110   0.990       .  S
O1101      H1114   0.990       .  S
C1125      C1126   1.203       .  T
C1127      C1128   1.205       .  T
C1129      C1130   1.206       .  T
C1131      C1132   1.206       .  T
C1133      C1134   1.412       .  A
C1133      C1138   1.418       .  A
C1133      H1139   1.080       .  S
C1135      C1136   1.417       .  A
C1135      H1140   1.080       .  S
C1136      H1141   1.078       .  S
C1137      C1138   1.418       .  A
C1138      H1142   1.081       .  S
C1143      C1144   1.416       .  A
C1143      C1148   1.419       .  A
C1143      H1149   1.082       .  S
C1145      C1146   1.417       .  A
C1145      H1150   1.079       .  S
C1146      H1151   1.081       .  S
C1147      C1148   1.415       .  A
C1148      H1152   1.080       .  S
C1153      C1154   1.206       .  T
C1155      C1156   1.205       .  T
C1157      C1162   1.394       .  A
C1157      H1163   1.082       .  S
C1158      C1159   1.404       .  A
C1159      C1160   1.396       .  A
C1159      H1164   1.082       .  S
C1160      C1161   1.405       .  A
C1160      H1165   1.082       .  S
C1162      H1166   1.082       .  S
C1167      C1168   1.208       .  T
C1169      C1170   1.210       .  T
C1171      C1176   1.415       .  A
C1171      H1177   1.080       .  S
C1172      C1173   1.412       .  A
C1173      C1174   1.418       .  A
C1173      H1178   1.080       .  S
C1174      H1179   1.079       .  S
C1175      C1176   1.411       .  A
C1176      H1180   1.081       .  S
C1181      C1182   1.412   1_565  A
C1181      C1186   1.418       .  A
C1181      H1187   1.081       .  S
C1183      C1184   1.418       .  A
C1183      H1188   1.080       .  S
C1184      C1185   1.413       .  A
C1184      H1189   1.080       .  S
C1186      H1190   1.081       .  S
C1191      C1196   1.397       .  A
C1191      H1197   1.082       .  S
C1193      C1194   1.396       .  A
C1193      H1198   1.082       .  S
C1194      H1199   1.082       .  S
C1196      H1200   1.082       .  S
