geometry optimzed in LAMMPS
_audit_creation_date              2020-11-30 
_audit_creation_method            'lammps2cif' 
_symmetry_space_group_name_H-M    'P1' 
_symmetry_Int_Tables_number       1 
_symmetry_cell_setting            triclinic 
loop_ 
_symmetry_equiv_pos_as_xyz 
  x,y,z 
_cell_length_a                    20.08952431 
_cell_length_b                    41.48701258310661 
_cell_length_c                    43.79002484173005 
_cell_angle_alpha                 89.87989385388705 
_cell_angle_beta                  90.09399408802969 
_cell_angle_gamma                 88.54576253805185 
loop_ 
_atom_site_label 
_atom_site_type_symbol 
_atom_site_fract_x 
_atom_site_fract_y 
_atom_site_fract_z 
_atom_site_charge 
C1          C  0.22456077  0.13304328  0.52787432     0.87200
C2          C  0.28056036  0.15758935  0.52962577    -0.53000
C3          C  0.28306572  0.17863327  0.50565385     0.10100
C4          C  0.22961123  0.17257998  0.48088516     0.21100
C5          C  0.16078811  0.15330712  0.52274958    -0.53700
C6          C  0.16267085  0.17420492  0.49848949     0.10200
C7          C  0.23724023  0.11631517  0.49698610    -0.53300
C8          C  0.23982779  0.13655216  0.47234712     0.10800
H9          H  0.31587604  0.15831964  0.54836233     0.15300
H10         H  0.23185517  0.18945260  0.46121206     0.01100
H11         H  0.11969775  0.15341762  0.53886752     0.15600
H12         H  0.24751656  0.09075409  0.49428846     0.15400
C13         C  0.05950816  0.24641091  0.52687641     0.87200
C14         C  0.00014541  0.22367130  0.52804852    -0.53000
C15         C  0.99540492  0.20322503  0.50359152     0.10100
C16         C  0.05160954  0.20709730  0.48003080     0.21100
C17         C  0.12096583  0.22388048  0.52241765    -0.53700
C18         C  0.11670494  0.20287047  0.49873283     0.10200
C19         C  0.05341682  0.26354204  0.49595456    -0.53300
C20         C  0.04798364  0.24336694  0.47151982     0.10800
H21         H  0.96534622  0.22342559  0.54700355     0.15300
H22         H  0.04850515  0.19041920  0.46029332     0.01100
H23         H  0.16466324  0.22322820  0.53691926     0.15600
H24         H  0.05683864  0.28943813  0.49326644     0.15400
C25         C  0.07411281  0.14294509  0.97585394     0.87200
C26         C  0.01397863  0.16686332  0.97861917    -0.53000
C27         C  0.01551677  0.18666373  0.00339846     0.10100
C28         C  0.07700751  0.18062191  0.02401568     0.21100
C29         C  0.13487163  0.16449804  0.97739542    -0.53700
C30         C  0.13647641  0.18445205  0.00216957     0.10200
C31         C  0.07332127  0.12497759  0.00627568    -0.53300
C32         C  0.07646466  0.14425141  0.03150809     0.10800
H33         H  0.97303374  0.16939461  0.96257389     0.15300
H34         H  0.07937963  0.19615548  0.04442157     0.01100
H35         H  0.17126466  0.16559356  0.95910153     0.15600
H36         H  0.07237193  0.09888870  0.00789501     0.15400
C37         C  0.23718461  0.25747967  0.97861784     0.87200
C38         C  0.30135755  0.23686837  0.98180343    -0.53000
C39         C  0.30169579  0.21546654  0.00556106     0.10100
C40         C  0.23834385  0.21768479  0.02535241     0.21100
C41         C  0.18087571  0.23334805  0.97826123    -0.53700
C42         C  0.18117201  0.21240026  0.00234209     0.10200
C43         C  0.23107057  0.27423675  0.00989964    -0.53300
C44         C  0.23211780  0.25376397  0.03427397     0.10800
H45         H  0.34191479  0.23760876  0.96550069     0.15300
H46         H  0.23888553  0.20068843  0.04495595     0.01100
H47         H  0.14494947  0.23209003  0.95974913     0.15600
H48         H  0.23103692  0.30000434  0.01356962     0.15400
O49         O  0.25459019  0.48676047  0.73084164    -0.57100
C50         C  0.29371815  0.40610177  0.79690515     0.75500
O51         O  0.08327099  0.41371237  0.72011377    -0.58200
C52         C  0.29658783  0.50038119  0.71371968     0.75500
C53         C  0.07472815  0.48042605  0.80135863     0.77900
Cd54       Cd  0.00728502  0.44581568  0.75365198     1.37500
O55         O  0.25409669  0.42810971  0.78672646    -0.57100
O56         O  0.01219101  0.47847802  0.79946773    -0.55900
C57         C  0.03797275  0.39589790  0.70953090     0.77900
O58         O  0.10855816  0.46654099  0.78038539    -0.58300
O59         O  0.01110035  0.40051584  0.78533789    -0.56700
O60         O  0.02373545  0.48483715  0.71427630    -0.56700
O61         O  0.97984414  0.40061161  0.72005121    -0.55900
O62         O  0.12916886  0.46964026  0.22592254    -0.57100
C63         C  0.06786866  0.39467582  0.29867435     0.75500
O64         O  0.28416714  0.47885240  0.27718087    -0.58200
C65         C  0.08970348  0.48256108  0.20631740     0.75500
C66         C  0.31759563  0.40065728  0.20745543     0.77900
Cd67       Cd  0.03696009  0.44370172  0.25414743     1.37500
O68         O  0.11598767  0.40903740  0.28600073    -0.57100
O69         O  0.04416681  0.39689578  0.22135541    -0.55900
C70         C  0.32752841  0.49468129  0.29166716     0.77900
O71         O  0.28022661  0.42294518  0.21856729    -0.58300
O72         O  0.34263806  0.40218672  0.28698096    -0.56700
O73         O  0.36834997  0.47813066  0.20629723    -0.56700
O74         O  0.05634536  0.48749724  0.28913364    -0.55900
C75         C  0.29694348  0.28300955  0.11067273    -0.13600
C76         C  0.24366969  0.30272194  0.12072746     0.16700
C77         C  0.18350740  0.30319095  0.10377704     0.03000
C78         C  0.18089213  0.28636261  0.07599506    -0.12100
C79         C  0.23469812  0.26708295  0.06574080    -0.02400
C80         C  0.29346529  0.26544377  0.08344288     0.02300
C81         C  0.25696488  0.32722556  0.14476482     0.09100
N82         N  0.12533223  0.32085746  0.11425437     0.65500
H83         H  0.13715967  0.28904184  0.06179386     0.18400
N84         N  0.02875264  0.24889703  0.07606911     0.76000
H85         H  0.01551259  0.27934643  0.12842971     0.09900
C86         C  0.29049792  0.31936469  0.17231963     0.03600
C87         C  0.30903600  0.34386282  0.19225468    -0.05100
C88         C  0.29319182  0.37627553  0.18601236    -0.23500
C89         C  0.25857901  0.38427165  0.15892626     0.12800
C90         C  0.24206993  0.35987914  0.13838541    -0.12700
N91         N  0.30482504  0.28669204  0.18095809     0.64500
H92         H  0.33555131  0.33741949  0.21306656     0.12400
N93         N  0.24302838  0.41699281  0.15097084     0.61200
H94         H  0.21860001  0.36665790  0.11694138     0.08500
O95         O  0.07144888  0.23715789  0.09443540    -0.40300
O96         O  0.04554600  0.25356666  0.04870053    -0.39500
O97         O  0.08317065  0.33211270  0.09537493    -0.39500
O98         O  0.11221820  0.32220554  0.14241891    -0.37200
O99         O  0.18761855  0.42914810  0.15901940    -0.38100
O100        O  0.27372734  0.42962880  0.12907186    -0.34200
O101        O  0.36418402  0.27606911  0.17965599    -0.35600
O102        O  0.26429758  0.27265097  0.19812239    -0.39900
C103        C  0.20800018  0.36416938  0.86304289    -0.13600
C104        C  0.25653068  0.34070548  0.87096296     0.16700
C105        C  0.31405080  0.33737461  0.85254185     0.03000
C106        C  0.32248530  0.35793587  0.82774136    -0.12100
C107        C  0.27618949  0.38292578  0.82113407    -0.03200
C108        C  0.21828291  0.38591617  0.83916869     0.02300
C109        C  0.24619247  0.31985571  0.89812336     0.09100
N110        N  0.36598107  0.31418496  0.85916933     0.65500
H111        H  0.36742240  0.35490070  0.81427776     0.18400
N112        N  0.17135776  0.41191341  0.83514082     0.76000
H113        H  0.16208618  0.36618937  0.87581661     0.09900
C114        C  0.22642062  0.33252040  0.92672803     0.03600
C115        C  0.22120450  0.31209169  0.95192441    -0.05100
C116        C  0.23664086  0.27886381  0.94996638    -0.23500
C117        C  0.25068191  0.26594114  0.92053089     0.12800
C118        C  0.25523510  0.28643657  0.89526424    -0.12700
N119        N  0.90650978  0.36971143  0.93519214     0.64500
H120        H  0.20418750  0.32305619  0.97282909     0.12400
N121        N  0.26020697  0.23207270  0.91551052     0.61200
H122        H  0.26571803  0.27597108  0.87310767     0.08500
O123        O  0.17829733  0.43711221  0.85077793    -0.40300
O124        O  0.11464343  0.40588777  0.82459516    -0.39500
O125        O  0.00335596  0.28244457  0.83885217    -0.39500
O126        O  0.41365473  0.32231084  0.87602974    -0.37200
O127        O  0.31846302  0.22104870  0.91091176    -0.38100
O128        O  0.21170990  0.21626482  0.90580251    -0.34200
O129        O  0.85348185  0.38461472  0.94268980    -0.35600
O130        O  0.96161579  0.38233098  0.94093020    -0.39900
C131        C  0.05433344  0.03976947  0.13022992    -0.13600
C132        C  0.10213966  0.06290956  0.13585636     0.16700
C133        C  0.14320688  0.05969210  0.16183613     0.03000
C134        C  0.13459879  0.03376918  0.18197057    -0.12100
C135        C  0.08410587  0.01152759  0.17711152    -0.03200
C136        C  0.08351781  0.50361530  0.15247623     0.02300
C137        C  0.10731336  0.08946233  0.11350014     0.09100
N138        N  0.19224799  0.08290664  0.16867689     0.65500
H139        H  0.16577092  0.03180964  0.20213944     0.18400
N140        N  0.03692557  0.47980732  0.14412136     0.76000
H141        H  0.02514745  0.04102993  0.10955646     0.09900
C142        C  0.15076132  0.08632052  0.08854805     0.03600
C143        C  0.14281992  0.10661552  0.06335846    -0.05100
C144        C  0.09057422  0.12962046  0.06183828    -0.23500
C145        C  0.04955177  0.13442368  0.08765268     0.12800
C146        C  0.05839248  0.11429817  0.11330303    -0.12700
N147        N  0.19909343  0.06061394  0.08703016     0.64500
H148        H  0.17525432  0.10287306  0.04384379     0.12400
N149        N  0.99543853  0.15741832  0.08740922     0.61200
H150        H  0.02381980  0.11651762  0.13219436     0.08500
O151        O  0.97583118  0.48765853  0.14356446    -0.40300
O152        O  0.05718465  0.45579292  0.12878686    -0.39500
O153        O  0.17939298  0.10406477  0.18861716    -0.39500
O154        O  0.25214542  0.07684734  0.16167343    -0.37200
O155        O  0.93879071  0.14852313  0.07892453    -0.38100
O156        O  0.99923989  0.18217225  0.10390849    -0.34200
O157        O  0.18384769  0.03469968  0.07403054    -0.35600
O158        O  0.25968259  0.06702762  0.09025220    -0.39900
C159        C  0.01267523  0.03461619  0.87481097    -0.13600
C160        C  0.06906403  0.05353756  0.87272343     0.16700
C161        C  0.11435029  0.04789348  0.84854916     0.03000
C162        C  0.10028285  0.02493698  0.82615210    -0.12100
C163        C  0.04144274  0.00756274  0.82720329    -0.03200
C164        C  0.99832506  0.01196329  0.85242557     0.02300
C165        C  0.07733011  0.07886717  0.89615917     0.09100
N166        N  0.17352935  0.06583233  0.84550421     0.65500
H167        H  0.13433611  0.02171643  0.80716016     0.18400
N168        N  0.37190020  0.47506113  0.86668120     0.76000
H169        H  0.35404040  0.02797344  0.90312246     0.09900
C170        C  0.02969650  0.10410391  0.89892539     0.03600
C171        C  0.03095693  0.12480994  0.92381337    -0.05100
C172        C  0.07695039  0.12059243  0.94778398    -0.23500
C173        C  0.12645981  0.09552754  0.94448831     0.12800
C174        C  0.12606851  0.07515798  0.91882008    -0.12700
N175        N  0.97624663  0.10789431  0.87768187     0.64500
H176        H  0.99381571  0.14412943  0.92362796     0.12400
N177        N  0.17641235  0.08956802  0.96724814     0.61200
H178        H  0.16236953  0.05540219  0.91728717     0.08500
O179        O  0.36264708  0.95324848  0.88156151    -0.40300
O180        O  0.31090992  0.48239230  0.86960217    -0.39500
O181        O  0.22892296  0.05106450  0.84823502    -0.39500
O182        O  0.17082642  0.09201570  0.83078682    -0.37200
O183        O  0.16952471  0.06626805  0.98546111    -0.38100
O184        O  0.23402617  0.10004716  0.96286513    -0.34200
O185        O  0.26148886  0.09935640  0.88735784    -0.35600
O186        O  0.32468162  0.12679547  0.85734496    -0.39900
C187        C  0.02731992  0.32289828  0.65699680    -0.13600
C188        C  0.07126642  0.33136358  0.63369465     0.16700
C189        C  0.10572690  0.36039517  0.63609854     0.03000
C190        C  0.09687626  0.37999306  0.66190352    -0.12100
C191        C  0.05130798  0.37212998  0.68484287    -0.03200
C192        C  0.01576310  0.34323742  0.68204835     0.02300
C193        C  0.07383678  0.31122038  0.60579452     0.09100
N194        N  0.14680027  0.37133854  0.61182656     0.65500
H195        H  0.12317274  0.40244572  0.66315707     0.18400
N196        N  0.29136235  0.34477959  0.70154205     0.76000
H197        H  0.00001951  0.30081098  0.65523263     0.09900
C198        C  0.11368075  0.28300202  0.60399047     0.03600
C199        C  0.10689109  0.26206354  0.57920208    -0.05100
C200        C  0.06265387  0.26907805  0.55476874    -0.23500
C201        C  0.02088968  0.29711521  0.55762101     0.12800
C202        C  0.02779045  0.31785394  0.58259270    -0.12700
N203        N  0.16167493  0.27515831  0.62709141     0.64500
H204        H  0.13609775  0.23995537  0.58006033     0.12400
N205        N  0.97082402  0.30538911  0.53563183     0.61200
H206        H  0.99531924  0.33899106  0.58428379     0.08500
O207        O  0.29734664  0.32331786  0.72189129    -0.40300
O208        O  0.23376377  0.35412952  0.69339626    -0.39500
O209        O  0.12217372  0.39086789  0.59250118    -0.39500
O210        O  0.20922954  0.36906069  0.61469471    -0.37200
O211        O  0.97609504  0.33152009  0.52115630    -0.38100
O212        O  0.91398059  0.29346016  0.53833928    -0.34200
O213        O  0.15422643  0.25028602  0.64323547    -0.35600
O214        O  0.21848862  0.28729750  0.62544312    -0.39900
C215        C  0.12594553  0.33448269  0.36032835    -0.13600
C216        C  0.07555443  0.31166051  0.35816239     0.16700
C217        C  0.02671850  0.31563501  0.33522469     0.03000
C218        C  0.02772849  0.34225405  0.31577277    -0.12100
C219        C  0.07611416  0.36583381  0.31856387    -0.03200
C220        C  0.12668198  0.36150978  0.34076757     0.02300
C221        C  0.06446215  0.28958020  0.38429472     0.09100
N222        N  0.31609920  0.29194847  0.33313677     0.65500
H223        H  0.32841420  0.34117463  0.29646269     0.18400
N224        N  0.17507294  0.38556032  0.34578068     0.76000
H225        H  0.16217660  0.33251263  0.37865294     0.09900
C226        C  0.10858847  0.26392757  0.39264058     0.03600
C227        C  0.09936226  0.24756572  0.42035765    -0.05100
C228        C  0.04717090  0.25632562  0.44000368    -0.23500
C229        C  0.00161720  0.28101923  0.43096768     0.12800
C230        C  0.01080602  0.29730089  0.40347378    -0.12700
N231        N  0.16351944  0.25440145  0.37381755     0.64500
H232        H  0.13539384  0.22916863  0.42740269     0.12400
N233        N  0.94707172  0.29096123  0.44985577     0.61200
H234        H  0.97710852  0.31722483  0.39769837     0.08500
O235        O  0.23312162  0.38111440  0.33543377    -0.40300
O236        O  0.16547554  0.40596436  0.36675509    -0.39500
O237        O  0.25712241  0.29988803  0.34017275    -0.39500
O238        O  0.32603486  0.26818260  0.31565845    -0.37200
O239        O  0.89083637  0.27914817  0.44492008    -0.38100
O240        O  0.29222949  0.32686730  0.46575257    -0.34200
O241        O  0.22168074  0.25668631  0.38438663    -0.35600
O242        O  0.15368298  0.23483255  0.35235681    -0.39900
C243        C  0.23093048  0.10272208  0.61174961    -0.13600
C244        C  0.23200566  0.06923526  0.60802254     0.16700
C245        C  0.22148204  0.05660728  0.57859387     0.03000
C246        C  0.21593148  0.07740912  0.55342251    -0.12100
C247        C  0.22151182  0.11110873  0.55641532    -0.03200
C248        C  0.22453562  0.12366182  0.58664227     0.02300
C249        C  0.24582047  0.04841748  0.63513626     0.09100
N250        N  0.21335221  0.02286511  0.57376117     0.65500
H251        H  0.20572228  0.06650245  0.53166437     0.18400
N252        N  0.22127025  0.15753754  0.59262987     0.76000
H253        H  0.87905026  0.11859479  0.63013741     0.09900
C254        C  0.95886570  0.03789293  0.63478555     0.03600
C255        C  0.97285324  0.01944860  0.66075574    -0.05100
C256        C  0.27527718  0.01193238  0.68851813    -0.23500
C257        C  0.21762430  0.03204764  0.68721275     0.12800
C258        C  0.20327225  0.04998029  0.66057611    -0.12700
N259        N  0.00926169  0.04042992  0.61198683     0.64500
H260        H  0.02011141  0.00628182  0.66189716     0.12400
N261        N  0.17524745  0.03600371  0.71310286     0.61200
H262        H  0.15913407  0.06553176  0.65989977     0.08500
O263        O  0.90807492  0.17731141  0.59652528    -0.40300
O264        O  0.16521613  0.17057055  0.59828383    -0.39500
O265        O  0.15506598  0.01245227  0.57177781    -0.39500
O266        O  0.26026415  0.00670304  0.56163993    -0.37200
O267        O  0.18869165  0.56865998  0.73157057    -0.38100
O268        O  0.12452254  0.01890586  0.71532590    -0.34200
O269        O  0.05341631  0.06122766  0.61537231    -0.35600
O270        O  0.02162468  0.01646926  0.59507225    -0.39900
C271        C  0.23527016  0.10833296  0.38910333    -0.13600
C272        C  0.28968484  0.08628990  0.38882740     0.16700
C273        C  0.33070085  0.08405139  0.41491638     0.03000
C274        C  0.31605856  0.10277553  0.44067885    -0.12100
C275        C  0.25966689  0.12338869  0.44182165    -0.03200
C276        C  0.21967616  0.12664946  0.41537268     0.02300
C277        C  0.29914891  0.06356409  0.36266702     0.09100
N278        N  0.38471400  0.06115023  0.41673150     0.65500
H279        H  0.34727786  0.09977528  0.46076142     0.18400
N280        N  0.16071582  0.14656821  0.41535039     0.76000
H281        H  0.20298864  0.11025630  0.36929930     0.09900
C282        C  0.25548500  0.03786008  0.35846356     0.03600
C283        C  0.26616720  0.01545684  0.33482968    -0.05100
C284        C  0.32015203  0.01832935  0.31484964    -0.23500
C285        C  0.02063667  0.04523842  0.31515870     0.12800
C286        C  0.35221381  0.06697880  0.34218160    -0.12700
N287        N  0.19988117  0.03429216  0.37823674     0.64500
H288        H  0.23330607  0.99526482  0.33267741     0.12400
N289        N  0.07800414  0.05006548  0.29654447     0.61200
H290        H  0.04086847  0.08595311  0.34402155     0.08500
O291        O  0.16204522  0.17378588  0.40252827    -0.40300
O292        O  0.10526306  0.13379903  0.41993612    -0.39500
O293        O  0.07551931  0.05283378  0.42293936    -0.39500
O294        O  0.37268585  0.03246377  0.42412244    -0.37200
O295        O  0.05056031  0.56010947  0.26509785    -0.38100
O296        O  0.13461268  0.04054416  0.30581964    -0.34200
O297        O  0.14431946  0.04649683  0.37044809    -0.35600
O298        O  0.20903924  0.02519824  0.40547107    -0.39900
C299        C  0.22049528  0.63818475  0.52566963     0.87200
C300        C  0.27766478  0.66190396  0.52797378    -0.53000
C301        C  0.28226828  0.68279347  0.50412447     0.10100
C302        C  0.23023647  0.67729945  0.47869252     0.21100
C303        C  0.15800240  0.65899071  0.51971866    -0.53700
C304        C  0.16238141  0.67979617  0.49553285     0.10200
C305        C  0.23359067  0.62108345  0.49504441    -0.53300
C306        C  0.23935619  0.64109301  0.47029514     0.10800
H307        H  0.31196398  0.66234743  0.54713461     0.15300
H308        H  0.23457993  0.69422484  0.45918065     0.01100
H309        H  0.11611237  0.65968527  0.53539611     0.15600
H310        H  0.24047976  0.59530750  0.49258654     0.15400
C311        C  0.06312078  0.75196015  0.52564825     0.87200
C312        C  0.00487091  0.72875100  0.52782968    -0.53000
C313        C  0.99839198  0.70864318  0.50337437     0.10100
C314        C  0.05187005  0.71330591  0.47860605     0.21100
C315        C  0.12470955  0.72986895  0.51980087    -0.53700
C316        C  0.11874186  0.70920928  0.49587074     0.10200
C317        C  0.05361395  0.76951806  0.49512236    -0.53300
C318        C  0.04690078  0.74973182  0.47042140     0.10800
H319        H  0.97232837  0.72773701  0.54758317     0.15300
H320        H  0.04725527  0.69678166  0.45883092     0.01100
H321        H  0.16892397  0.72852738  0.53386906     0.15600
H322        H  0.05643323  0.79550444  0.49304329     0.15400
C323        C  0.15658887  0.63051504  0.97375960     0.87200
C324        C  0.09644062  0.65455507  0.97506733    -0.53000
C325        C  0.09378490  0.67365762  0.00035445     0.10100
C326        C  0.15048273  0.66638481  0.02319887     0.21100
C327        C  0.21738225  0.65136081  0.97879202    -0.53700
C328        C  0.21460437  0.67035451  0.00426244     0.10200
C329        C  0.14964603  0.61121221  0.00339071    -0.53300
C330        C  0.14681258  0.62969026  0.02924708     0.10800
H331        H  0.05805716  0.65716502  0.95784249     0.15300
H332        H  0.14855902  0.68152952  0.04402114     0.01100
H333        H  0.25675212  0.65321144  0.96193079     0.15600
H334        H  0.14721139  0.58512963  0.00408325     0.15400
C335        C  0.31083384  0.74523293  0.98300062     0.87200
C336        C  0.37510701  0.72448910  0.98396005    -0.53000
C337        C  0.37843081  0.70245978  0.00719148     0.10100
C338        C  0.31644168  0.70338350  0.02803482     0.21100
C339        C  0.25424421  0.72122549  0.98300001    -0.53700
C340        C  0.25730087  0.69895739  0.00589732     0.10200
C341        C  0.30656688  0.76047178  0.01503053    -0.53300
C342        C  0.30964614  0.73883841  0.03855392     0.10800
H343        H  0.41338801  0.72577544  0.96653876     0.15300
H344        H  0.31812106  0.68577435  0.04693985     0.01100
H345        H  0.21600453  0.72091060  0.96545990     0.15600
H346        H  0.29990207  0.78588610  0.01978005     0.15400
O347        O  0.25108632  0.97801400  0.73231947    -0.57100
C348        C  0.30673477  0.89704006  0.80152353     0.75500
O349        O  0.06754477  0.91975031  0.71837125    -0.58200
C350        C  0.29352486  0.99097045  0.71484926     0.75500
C351        C  0.02417605  0.98664169  0.80120169     0.77900
Cd352      Cd  0.98552716  0.94667768  0.75207306     1.37500
O353        O  0.25971862  0.91456786  0.79015801    -0.57100
O354        O  0.96389731  0.98055051  0.79546676    -0.55900
C355        C  0.02492184  0.90130869  0.70635842     0.77900
O356        O  0.06817380  0.97467157  0.78321459    -0.58300
O357        O  0.02010049  0.90389481  0.78350498    -0.56700
O358        O  0.00369236  0.98739953  0.71539549    -0.56700
O359        O  0.96505282  0.90436682  0.71543579    -0.55900
O360        O  0.11814853  0.97490095  0.21747375    -0.57100
C361        C  0.07368187  0.89442990  0.29190912     0.75500
O362        O  0.29184692  0.97716213  0.27781272    -0.58200
C363        C  0.07159965  0.98686444  0.20065151     0.75500
C364        C  0.34539477  0.89659922  0.20437075     0.77900
Cd365      Cd  0.04106907  0.94257836  0.24738148     1.37500
O366        O  0.12111086  0.91065153  0.28072769    -0.57100
O367        O  0.07000379  0.90356194  0.20799889    -0.55900
C368        C  0.33620851  0.99246974  0.29236051     0.77900
O369        O  0.29975644  0.91044385  0.22025882    -0.58300
O370        O  0.34855711  0.90329905  0.28411111    -0.56700
O371        O  0.35024006  0.98216909  0.20847671    -0.56700
O372        O  0.05797265  0.98610213  0.28285718    -0.55900
C373        C  0.35160693  0.76750272  0.11861611    -0.13600
C374        C  0.29686676  0.78840264  0.12415240     0.16700
C375        C  0.24203690  0.78764557  0.10414024     0.03000
C376        C  0.24508323  0.76855385  0.07785046    -0.12100
C377        C  0.30260458  0.75036184  0.07055398    -0.02400
C378        C  0.35586510  0.74910110  0.09168518     0.02300
C379        C  0.30598466  0.81621016  0.14507714     0.09100
N380        N  0.18464504  0.80784434  0.10895497     0.65500
H381        H  0.20401645  0.76988143  0.06176417     0.18400
N382        N  0.05189316  0.72167928  0.08831933     0.76000
H383        H  0.02773106  0.76083410  0.13453928     0.09900
C384        C  0.27284474  0.81982322  0.17328243     0.03600
C385        C  0.28418993  0.84702479  0.19148088    -0.05100
C386        C  0.33067475  0.87008038  0.18287896    -0.23500
C387        C  0.36472074  0.86604926  0.15487476     0.12800
C388        C  0.35049491  0.83989643  0.13600314    -0.12700
N389        N  0.23130407  0.79523919  0.18487245     0.64500
H390        H  0.25892569  0.84926813  0.21325355     0.12400
N391        N  0.41333965  0.88831555  0.14492555     0.61200
H392        H  0.37517931  0.83782019  0.11409838     0.08500
O393        O  0.04005360  0.69696445  0.10399472    -0.40300
O394        O  0.11147774  0.72754870  0.08177524    -0.39500
O395        O  0.17359071  0.83146460  0.09130190    -0.39500
O396        O  0.13731715  0.79684564  0.12430532    -0.37200
O397        O  0.39830334  0.90786359  0.12376805    -0.38100
O398        O  0.47402762  0.88209562  0.15038459    -0.34200
O399        O  0.25700238  0.77376932  0.20195722    -0.35600
O400        O  0.16922236  0.80046133  0.18595345    -0.39900
C401        C  0.24819462  0.85345788  0.87267694    -0.13600
C402        C  0.29932428  0.82996855  0.87580797     0.16700
C403        C  0.34732981  0.82657599  0.85250018     0.03000
C404        C  0.34559998  0.84761453  0.82768639    -0.12100
C405        C  0.29686772  0.87232638  0.82528473    -0.03200
C406        C  0.24629582  0.87453437  0.84758949     0.02300
C407        C  0.30154151  0.80903031  0.90325515     0.09100
N408        N  0.40032056  0.80299446  0.85428599     0.65500
H409        H  0.38443076  0.84519641  0.81061406     0.18400
N410        N  0.19478900  0.89884795  0.84614083     0.76000
H411        H  0.20984836  0.85565201  0.88998016     0.09900
C412        C  0.30382669  0.82193553  0.93293318     0.03600
C413        C  0.30642938  0.80139227  0.95823960    -0.05100
C414        C  0.30763049  0.76757920  0.95500216    -0.23500
C415        C  0.30623595  0.75484620  0.92482021     0.12800
C416        C  0.30166118  0.77557123  0.89964086    -0.12700
N417        N  0.00221532  0.85350967  0.92497634     0.64500
H418        H  0.30974910  0.81281836  0.98015192     0.12400
N419        N  0.31105217  0.72094784  0.91895696     0.61200
H420        H  0.29879428  0.76531455  0.87696872     0.08500
O421        O  0.19841150  0.92312720  0.86328985    -0.40300
O422        O  0.13904045  0.89178642  0.83504445    -0.39500
O423        O  0.06669846  0.77755329  0.82120360    -0.39500
O424        O  0.45639557  0.81135982  0.86403957    -0.37200
O425        O  0.36695890  0.70879673  0.91159077    -0.38100
O426        O  0.25917173  0.70640086  0.91135230    -0.34200
O427        O  0.95453728  0.87115196  0.93445666    -0.35600
O428        O  0.06083557  0.86349004  0.92719706    -0.39900
C429        C  0.09980551  0.52675590  0.13083502    -0.13600
C430        C  0.14125916  0.55215260  0.13800120     0.16700
C431        C  0.17168018  0.55265102  0.16709411     0.03000
C432        C  0.15771957  0.52846920  0.18860177    -0.12100
C433        C  0.11227258  0.50432986  0.18185719    -0.03200
C434        C  0.04350659  0.01479761  0.15082706     0.02300
C435        C  0.14877481  0.57760359  0.11439484     0.09100
N436        N  0.21473544  0.57791973  0.17566018     0.65500
H437        H  0.17978721  0.52956958  0.21116871     0.18400
N438        N  0.99161492  0.99287117  0.14427363     0.76000
H439        H  0.07918729  0.52507008  0.10818785     0.09900
C440        C  0.20387045  0.57706548  0.09464116     0.03600
C441        C  0.20258255  0.59567467  0.06802633    -0.05100
C442        C  0.14644710  0.61444313  0.05988092    -0.23500
C443        C  0.09009214  0.61499749  0.07930357     0.12800
C444        C  0.09291219  0.59724130  0.10683314    -0.12700
N445        N  0.25934868  0.55563977  0.09979849     0.64500
H446        H  0.24456094  0.59395891  0.05255445     0.12400
N447        N  0.02787199  0.63006152  0.07005852     0.61200
H448        H  0.04898288  0.59628397  0.12110276     0.08500
O449        O  0.93242401  0.00082910  0.15106216    -0.40300
O450        O  0.00170232  0.97135740  0.12437392    -0.39500
O451        O  0.19253761  0.59994755  0.19296972    -0.39500
O452        O  0.27684074  0.57301855  0.17395709    -0.37200
O453        O  0.00985593  0.62918172  0.04245501    -0.38100
O454        O  0.98561160  0.63872052  0.08992329    -0.34200
O455        O  0.26353936  0.52972612  0.08480796    -0.35600
O456        O  0.31124324  0.56667911  0.11160384    -0.39900
C457        C  0.09532501  0.52577240  0.87568062    -0.13600
C458        C  0.14920305  0.54519746  0.86891527     0.16700
C459        C  0.18437999  0.54012476  0.84138226     0.03000
C460        C  0.16223077  0.51714344  0.82035088    -0.12100
C461        C  0.10505200  0.49936327  0.82623385    -0.03200
C462        C  0.07328868  0.50289867  0.85490399     0.02300
C463        C  0.16454605  0.57075645  0.89122929     0.09100
N464        N  0.24047594  0.55894414  0.83371363     0.65500
H465        H  0.18774579  0.51447008  0.79867800     0.18400
N466        N  0.33440922  0.97714160  0.86862407     0.76000
H467        H  0.41731713  0.51940583  0.90349271     0.09900
C468        C  0.12567867  0.59937863  0.89209951     0.03600
C469        C  0.12607104  0.61885759  0.91802994    -0.05100
C470        C  0.16313132  0.61023586  0.94433576    -0.23500
C471        C  0.20851148  0.58347007  0.94173830     0.12800
C472        C  0.20753287  0.56367849  0.91566872    -0.12700
N473        N  0.08340276  0.60869692  0.86718799     0.64500
H474        H  0.09697634  0.64092869  0.91668230     0.12400
N475        N  0.25684551  0.57621340  0.96489025     0.61200
H476        H  0.23886911  0.54204221  0.91497937     0.08500
O477        O  0.39453034  0.44965560  0.87923253    -0.40300
O478        O  0.27201614  0.98069587  0.87049305    -0.39500
O479        O  0.29818444  0.54707678  0.83793541    -0.39500
O480        O  0.23272454  0.58208169  0.81520133    -0.37200
O481        O  0.24778608  0.55265567  0.98254321    -0.38100
O482        O  0.31520930  0.58613930  0.96137427    -0.34200
O483        O  0.34647532  0.60237584  0.87812762    -0.35600
O484        O  0.42423359  0.62928492  0.85593163    -0.39900
C485        C  0.02750786  0.82707131  0.65578439    -0.13600
C486        C  0.07056014  0.83643624  0.63250514     0.16700
C487        C  0.10218410  0.86628631  0.63465786     0.03000
C488        C  0.08854390  0.88666485  0.65951635    -0.12100
C489        C  0.04328338  0.87784758  0.68223965    -0.03200
C490        C  0.01356327  0.84739624  0.68051473     0.02300
C491        C  0.07397804  0.81647118  0.60463175     0.09100
N492        N  0.14738764  0.87648410  0.61165774     0.65500
H493        H  0.11181962  0.90992491  0.66053217     0.18400
N494        N  0.31390097  0.83509288  0.70941668     0.76000
H495        H  0.00351774  0.80402203  0.65442464     0.09900
C496        C  0.12044950  0.79091523  0.60125324     0.03600
C497        C  0.11662092  0.77041272  0.57600284    -0.05100
C498        C  0.06656723  0.77456141  0.55345181    -0.23500
C499        C  0.01797716  0.79957290  0.55814471     0.12800
C500        C  0.02310021  0.82041149  0.58309008    -0.12700
N501        N  0.16976684  0.78421736  0.62407629     0.64500
H502        H  0.15195189  0.75053782  0.57555102     0.12400
N503        N  0.96220873  0.80424079  0.53820438     0.61200
H504        H  0.98533985  0.83922402  0.58628919     0.08500
O505        O  0.33309870  0.81569723  0.73003698    -0.40300
O506        O  0.25235851  0.83890651  0.70430112    -0.39500
O507        O  0.12894565  0.89824188  0.59308669    -0.39500
O508        O  0.20879199  0.87039580  0.61512356    -0.37200
O509        O  0.95703691  0.83036158  0.52352145    -0.38100
O510        O  0.91027275  0.78859297  0.54316330    -0.34200
O511        O  0.15984811  0.76204397  0.64317992    -0.35600
O512        O  0.22840201  0.79339896  0.61976563    -0.39900
C513        C  0.12812541  0.83991568  0.35838605    -0.13600
C514        C  0.08088850  0.81561921  0.35588044     0.16700
C515        C  0.03726860  0.81597957  0.33077162     0.03000
C516        C  0.03889897  0.84115689  0.30963682    -0.12100
C517        C  0.08330202  0.86654582  0.31285134    -0.03200
C518        C  0.13011199  0.86523595  0.33696237     0.02300
C519        C  0.06719501  0.79526775  0.38283046     0.09100
N520        N  0.31954746  0.79384221  0.32997332     0.65500
H521        H  0.33627981  0.84261696  0.29309902     0.18400
N522        N  0.17654613  0.89031429  0.34138727     0.76000
H523        H  0.16106013  0.84021149  0.37801194     0.09900
C524        C  0.10249866  0.76633144  0.38951600     0.03600
C525        C  0.09177331  0.75051485  0.41744031    -0.05100
C526        C  0.04618589  0.76306524  0.43882460    -0.23500
C527        C  0.00785237  0.79095012  0.43094793     0.12800
C528        C  0.01900795  0.80672538  0.40331018    -0.12700
N529        N  0.14980486  0.75295115  0.36852395     0.64500
H530        H  0.12168561  0.72935340  0.42318484     0.12400
N531        N  0.95785405  0.80408605  0.45075523     0.61200
H532        H  0.99067279  0.82864876  0.39807033     0.08500
O533        O  0.23639353  0.88544405  0.33361882    -0.40300
O534        O  0.16257460  0.91275330  0.35989144    -0.39500
O535        O  0.25850925  0.80085403  0.33322120    -0.39500
O536        O  0.33627953  0.76906292  0.31489663    -0.37200
O537        O  0.89906000  0.79450837  0.44795885    -0.38100
O538        O  0.27473277  0.82261350  0.46597627    -0.34200
O539        O  0.21104835  0.75440562  0.37461565    -0.35600
O540        O  0.13065300  0.73270058  0.34914674    -0.39900
C541        C  0.22353404  0.61100508  0.61008788    -0.13600
C542        C  0.22778738  0.57742802  0.60730450     0.16700
C543        C  0.21871556  0.56357437  0.57824826     0.03000
C544        C  0.21256477  0.58336181  0.55247083    -0.12100
C545        C  0.21554809  0.61716431  0.55454643    -0.03200
C546        C  0.21596798  0.63089719  0.58433357     0.02300
C547        C  0.24430221  0.55782048  0.63482549     0.09100
N548        N  0.21198097  0.52960766  0.57435390     0.65500
H549        H  0.20421093  0.57151279  0.53099764     0.18400
N550        N  0.20904235  0.66493477  0.58909790     0.76000
H551        H  0.89687262  0.61626355  0.63161858     0.09900
C552        C  0.97302458  0.53399872  0.63360000     0.03600
C553        C  0.98818203  0.51587484  0.65965611    -0.05100
C554        C  0.27790132  0.52248302  0.68830854    -0.23500
C555        C  0.21881937  0.54165150  0.68725041     0.12800
C556        C  0.20227286  0.55893045  0.66046842    -0.12700
N557        N  0.02138566  0.53498998  0.60989686     0.64500
H558        H  0.03431572  0.50173507  0.66001128     0.12400
N559        N  0.17764070  0.54568605  0.71356158     0.61200
H560        H  0.15693126  0.57363746  0.65983749     0.08500
O561        O  0.93271622  0.67566893  0.59837916    -0.40300
O562        O  0.15187978  0.67674300  0.59473330    -0.39500
O563        O  0.15411019  0.51892270  0.57187366    -0.39500
O564        O  0.25919474  0.51364539  0.56229278    -0.37200
O565        O  0.17852318  0.06140053  0.72878699    -0.38100
O566        O  0.12139512  0.53290462  0.71397970    -0.34200
O567        O  0.06349720  0.55704511  0.61038550    -0.35600
O568        O  0.03483908  0.50937896  0.59547601    -0.39900
C569        C  0.23914585  0.61650963  0.38560431    -0.13600
C570        C  0.28303212  0.58958333  0.38645136     0.16700
C571        C  0.31684984  0.58242502  0.41395346     0.03000
C572        C  0.30633502  0.60175060  0.43966507    -0.12100
C573        C  0.25885829  0.62718654  0.43982648    -0.03200
C574        C  0.22641395  0.63511955  0.41203649     0.02300
C575        C  0.28974024  0.56776249  0.35950811     0.09100
N576        N  0.35804852  0.55409334  0.41726370     0.65500
H577        H  0.33298121  0.59539106  0.46045041     0.18400
N578        N  0.17923435  0.66127012  0.41024928     0.76000
H579        H  0.21271377  0.62236728  0.36464721     0.09900
C580        C  0.24435857  0.54291430  0.35488880     0.03600
C581        C  0.25494522  0.51995750  0.33181557    -0.05100
C582        C  0.31040847  0.52164156  0.31264122    -0.23500
C583        C  0.01797766  0.55052071  0.31524228     0.12800
C584        C  0.34276040  0.57076072  0.33897257    -0.12700
N585        N  0.18585337  0.54144700  0.37295388     0.64500
H586        H  0.22076688  0.50030997  0.32947940     0.12400
N587        N  0.06786210  0.55543368  0.29250885     0.61200
H588        H  0.03821459  0.59485784  0.33894970     0.08500
O589        O  0.19747795  0.68746146  0.39870872    -0.40300
O590        O  0.11791004  0.65556069  0.41161500    -0.39500
O591        O  0.09947480  0.57639187  0.42218463    -0.39500
O592        O  0.33057239  0.52773665  0.42295591    -0.37200
O593        O  0.07080210  0.05886263  0.26910592    -0.38100
O594        O  0.12797292  0.54848080  0.29846868    -0.34200
O595        O  0.13525799  0.55785403  0.36487904    -0.35600
O596        O  0.18871743  0.52942004  0.39940792    -0.39900
C597        C  0.55457404  0.13562129  0.52635388     0.87200
C598        C  0.61189637  0.15943209  0.52800461    -0.53000
C599        C  0.61520323  0.18030086  0.50391345     0.10100
C600        C  0.56103301  0.17491627  0.47933295     0.21100
C601        C  0.49186080  0.15638124  0.52141117    -0.53700
C602        C  0.49459420  0.17730827  0.49729790     0.10200
C603        C  0.56610903  0.11874834  0.49551741    -0.53300
C604        C  0.56929746  0.13879916  0.47078285     0.10800
H605        H  0.64768118  0.15966835  0.54655542     0.15300
H606        H  0.56371748  0.19175109  0.45965074     0.01100
H607        H  0.45113373  0.15698175  0.53773943     0.15600
H608        H  0.57536182  0.09307038  0.49301320     0.15400
C609        C  0.39555291  0.24844436  0.52947478     0.87200
C610        C  0.33705142  0.22522958  0.53088389    -0.53000
C611        C  0.33078088  0.20570425  0.50588643     0.10100
C612        C  0.38445002  0.21118029  0.48134677     0.21100
C613        C  0.45697742  0.22644333  0.52307819    -0.53700
C614        C  0.45102502  0.20658536  0.49856184     0.10200
C615        C  0.38632127  0.26689560  0.49937716    -0.53300
C616        C  0.38007051  0.24779310  0.47418554     0.10800
H617        H  0.30466167  0.22355807  0.55063768     0.15300
H618        H  0.38016891  0.19531569  0.46106751     0.01100
H619        H  0.50127287  0.22461531  0.53705153     0.15600
H620        H  0.38952127  0.29291563  0.49782557     0.15400
C621        C  0.41206696  0.14538431  0.97758827     0.87200
C622        C  0.34930008  0.16752993  0.98045298    -0.53000
C623        C  0.34914112  0.18753136  0.00513725     0.10100
C624        C  0.41131883  0.18325468  0.02559998     0.21100
C625        C  0.46997738  0.16869759  0.97880087    -0.53700
C626        C  0.46996336  0.18852937  0.00365283     0.10200
C627        C  0.41434018  0.12743970  0.00809751    -0.53300
C628        C  0.41488458  0.14693989  0.03327047     0.10800
H629        H  0.30899855  0.16938668  0.96444374     0.15300
H630        H  0.41211120  0.19898925  0.04585516     0.01100
H631        H  0.50619633  0.17059225  0.96053213     0.15600
H632        H  0.41707233  0.10133778  0.00976585     0.15400
C633        C  0.57386090  0.26066208  0.98111246     0.87200
C634        C  0.63649535  0.23897977  0.98432931    -0.53000
C635        C  0.63524410  0.21752765  0.00799298     0.10100
C636        C  0.57193758  0.22076233  0.02775882     0.21100
C637        C  0.51570703  0.23752840  0.98073801    -0.53700
C638        C  0.51453726  0.21646714  0.00468132     0.10200
C639        C  0.56823711  0.27746631  0.01245379    -0.53300
C640        C  0.56781339  0.25689268  0.03682522     0.10800
H641        H  0.67708712  0.23907065  0.96802674     0.15300
H642        H  0.57116406  0.20369612  0.04728764     0.01100
H643        H  0.47998127  0.23673732  0.96210881     0.15600
H644        H  0.56774945  0.30320652  0.01618825     0.15400
O645        O  0.59107786  0.48129162  0.72709924    -0.57100
C646        C  0.62754703  0.40271581  0.79444301     0.75500
O647        O  0.42176377  0.41784721  0.72165218    -0.58200
C648        C  0.63161619  0.49229821  0.70765525     0.75500
C649        C  0.41053600  0.48433206  0.80257036     0.77900
Cd650      Cd  0.34345312  0.45055042  0.75444323     1.37500
O651        O  0.58824978  0.42365583  0.78228763    -0.57100
O652        O  0.34846976  0.48013145  0.80201049    -0.55900
C653        C  0.37608767  0.40125510  0.70967516     0.77900
O654        O  0.44386032  0.47334996  0.77999202    -0.58300
O655        O  0.35185611  0.40485991  0.78577849    -0.56700
O656        O  0.35706910  0.49212953  0.71754303    -0.56700
O657        O  0.31712222  0.40788514  0.71824152    -0.55900
O658        O  0.46661394  0.46987908  0.22543653    -0.57100
C659        C  0.40102882  0.39375808  0.29525704     0.75500
O660        O  0.62439339  0.48494106  0.27656901    -0.58200
C661        C  0.42999424  0.48346800  0.20511381     0.75500
C662        C  0.65114153  0.40295310  0.21113589     0.77900
Cd663      Cd  0.37059906  0.44398175  0.25113124     1.37500
O664        O  0.44857135  0.40939656  0.28362134    -0.57100
O665        O  0.37759240  0.39909052  0.21652746    -0.55900
C666        C  0.66749487  0.50166528  0.29023637     0.77900
O667        O  0.61712509  0.42766542  0.21968921    -0.58300
O668        O  0.67858905  0.40922386  0.28866332    -0.56700
O669        O  0.71208730  0.47753527  0.20281018    -0.56700
O670        O  0.38782507  0.48622176  0.28763600    -0.55900
C671        C  0.62863947  0.28394979  0.11501833    -0.13600
C672        C  0.57611397  0.30459781  0.12437945     0.16700
C673        C  0.51738198  0.30621808  0.10629879     0.03000
C674        C  0.51525912  0.28922934  0.07854237    -0.12100
C675        C  0.56923178  0.26990735  0.06854045    -0.02400
C676        C  0.62693437  0.26750772  0.08699114     0.02300
C677        C  0.58933159  0.32899243  0.14877304     0.09100
N678        N  0.46018505  0.32543007  0.11546272     0.65500
H679        H  0.47180842  0.29192131  0.06407315     0.18400
N680        N  0.35329072  0.25025676  0.07217703     0.76000
H681        H  0.34433455  0.28381388  0.12232244     0.09900
C682        C  0.62099188  0.32106349  0.17683645     0.03600
C683        C  0.63944616  0.34560996  0.19691145    -0.05100
C684        C  0.62484567  0.37814950  0.19042295    -0.23500
C685        C  0.59113215  0.38604624  0.16310177     0.12800
C686        C  0.57574925  0.36173303  0.14230349    -0.12700
N687        N  0.63329062  0.28834163  0.18588242     0.64500
H688        H  0.66495481  0.33912232  0.21796889     0.12400
N689        N  0.57535075  0.41869226  0.15510408     0.61200
H690        H  0.55389250  0.36871621  0.12056946     0.08500
O691        O  0.39282263  0.23632805  0.09069025    -0.40300
O692        O  0.37460748  0.25805035  0.04617088    -0.39500
O693        O  0.42215208  0.33825150  0.09564563    -0.39500
O694        O  0.44452496  0.32758894  0.14330335    -0.37200
O695        O  0.51905931  0.43040848  0.16240263    -0.38100
O696        O  0.60656754  0.43133686  0.13339404    -0.34200
O697        O  0.69261804  0.27769291  0.18741545    -0.35600
O698        O  0.58892482  0.27414348  0.20073808    -0.39900
C699        C  0.54525463  0.36608185  0.86403772    -0.13600
C700        C  0.58894616  0.33979431  0.86995308     0.16700
C701        C  0.63987413  0.33257156  0.84849426     0.03000
C702        C  0.64794252  0.35241853  0.82313875    -0.12100
C703        C  0.60761933  0.38007062  0.81860396    -0.03200
C704        C  0.55484943  0.38651813  0.83900929     0.02300
C705        C  0.58097833  0.32037325  0.89836935     0.09100
N706        N  0.68649332  0.30629947  0.85263694     0.65500
H707        H  0.68832270  0.34673828  0.80749348     0.18400
N708        N  0.51364814  0.41485241  0.83615124     0.76000
H709        H  0.50420344  0.37138825  0.87931846     0.09900
C710        C  0.57235729  0.33470459  0.92740931     0.03600
C711        C  0.56822746  0.31538503  0.95351656    -0.05100
C712        C  0.57508665  0.28154951  0.95207055    -0.23500
C713        C  0.58231048  0.26733930  0.92264438     0.12800
C714        C  0.58279954  0.28670209  0.89648439    -0.12700
N715        N  0.21225416  0.36614892  0.93111100     0.64500
H716        H  0.56070623  0.32781781  0.97477959     0.12400
N717        N  0.59193999  0.23332213  0.91859551     0.61200
H718        H  0.58573460  0.27506486  0.87443465     0.08500
O719        O  0.53096832  0.44026647  0.84942128    -0.40300
O720        O  0.45375893  0.41209428  0.82817444    -0.39500
O721        O  0.37404314  0.29028211  0.84165428    -0.39500
O722        O  0.74236559  0.31182344  0.86445691    -0.37200
O723        O  0.65030994  0.22239848  0.91406735    -0.38100
O724        O  0.54364122  0.21707881  0.90937185    -0.34200
O725        O  0.15219876  0.37572348  0.93265857    -0.35600
O726        O  0.25650689  0.38334129  0.94276265    -0.39900
C727        C  0.39614321  0.04316000  0.13244264    -0.13600
C728        C  0.44275551  0.06676214  0.13846947     0.16700
C729        C  0.48188349  0.06418291  0.16520078     0.03000
C730        C  0.47205197  0.03857156  0.18570479    -0.12100
C731        C  0.42324065  0.01561058  0.18013361    -0.03200
C732        C  0.42835810  0.50763693  0.15214218     0.02300
C733        C  0.44695057  0.09358371  0.11616211     0.09100
N734        N  0.53056850  0.08752342  0.17225924     0.65500
H735        H  0.50138048  0.03717462  0.20647885     0.18400
N736        N  0.38089691  0.48504578  0.14179460     0.76000
H737        H  0.36763750  0.04427264  0.11148287     0.09900
C738        C  0.49256934  0.09186349  0.09185228     0.03600
C739        C  0.48396118  0.11196409  0.06652000    -0.05100
C740        C  0.42858844  0.13297022  0.06391330    -0.23500
C741        C  0.38442512  0.13615528  0.08883268     0.12800
C742        C  0.39442997  0.11664196  0.11484517    -0.12700
N743        N  0.54384164  0.06753730  0.09080724     0.64500
H744        H  0.51837069  0.10934135  0.04757110     0.12400
N745        N  0.32551180  0.15609790  0.08692913     0.61200
H746        H  0.35773051  0.11751389  0.13295996     0.08500
O747        O  0.31967496  0.49220236  0.14405061    -0.40300
O748        O  0.39939749  0.46362697  0.12299382    -0.39500
O749        O  0.51849500  0.10772898  0.19315287    -0.39500
O750        O  0.59010537  0.08224861  0.16420007    -0.37200
O751        O  0.27323902  0.14435833  0.07608050    -0.38100
O752        O  0.32051228  0.18073801  0.10367045    -0.34200
O753        O  0.53305269  0.04184700  0.07644108    -0.35600
O754        O  0.60311416  0.07584697  0.09476144    -0.39900
C755        C  0.38019576  0.02908857  0.88152282    -0.13600
C756        C  0.42016911  0.05535894  0.87504779     0.16700
C757        C  0.45697321  0.05550741  0.84761773     0.03000
C758        C  0.44923529  0.03076461  0.82622707    -0.12100
C759        C  0.40554389  0.00571617  0.83184238    -0.03200
C760        C  0.37330619  0.00416426  0.86042041     0.02300
C761        C  0.42343723  0.08132446  0.89808436     0.09100
N762        N  0.50162679  0.08065194  0.84074788     0.65500
H763        H  0.47485103  0.03208070  0.80450900     0.18400
N764        N  0.69406931  0.48070700  0.85855731     0.76000
H765        H  0.68760477  0.03239526  0.90247625     0.09900
C766        C  0.37155361  0.10444114  0.90096885     0.03600
C767        C  0.36894024  0.12502326  0.92612457    -0.05100
C768        C  0.41709767  0.12309153  0.94955649    -0.23500
C769        C  0.47117319  0.10060326  0.94574590     0.12800
C770        C  0.47340583  0.07991487  0.92036163    -0.12700
N771        N  0.31903602  0.10704622  0.87908285     0.64500
H772        H  0.32880745  0.14204099  0.92627999     0.12400
N773        N  0.52477091  0.09836240  0.96720796     0.61200
H774        H  0.51343232  0.06209688  0.91847636     0.08500
O775        O  0.68875771  0.95991249  0.87789334    -0.40300
O776        O  0.63423088  0.49059281  0.85978307    -0.39500
O777        O  0.56282257  0.07353854  0.83830847    -0.39500
O778        O  0.47903813  0.10602767  0.82812994    -0.37200
O779        O  0.52565807  0.07577346  0.98655661    -0.38100
O780        O  0.57869403  0.11167718  0.96071375    -0.34200
O781        O  0.60674670  0.11935187  0.87646468    -0.35600
O782        O  0.68637261  0.14696004  0.85695323    -0.39900
C783        C  0.35688933  0.32877289  0.65741393    -0.13600
C784        C  0.41003549  0.33231355  0.63718467     0.16700
C785        C  0.45547755  0.35713622  0.64237639     0.03000
C786        C  0.44541475  0.37848539  0.66697021    -0.12100
C787        C  0.38989997  0.37596554  0.68627503    -0.03200
C788        C  0.34623388  0.35017243  0.68162567     0.02300
C789        C  0.41114641  0.31193642  0.60933093     0.09100
N790        N  0.50964166  0.36229594  0.62200703     0.65500
H791        H  0.47953089  0.39803413  0.67007773     0.18400
N792        N  0.65645703  0.33108179  0.70652459     0.76000
H793        H  0.32228916  0.30952500  0.65395808     0.09900
C794        C  0.45714361  0.28625074  0.60512677     0.03600
C795        C  0.45089335  0.26570339  0.57997851    -0.05100
C796        C  0.39988657  0.27026435  0.55790586    -0.23500
C797        C  0.35208755  0.29539076  0.56332736     0.12800
C798        C  0.35876820  0.31592646  0.58843794    -0.12700
N799        N  0.50849822  0.27936747  0.62695908     0.64500
H800        H  0.48560851  0.24560749  0.57912444     0.12400
N801        N  0.29627950  0.30087158  0.54358807     0.61200
H802        H  0.32160343  0.33492219  0.59202085     0.08500
O803        O  0.67737649  0.31255871  0.72752553    -0.40300
O804        O  0.59473682  0.33308521  0.70118420    -0.39500
O805        O  0.50239688  0.38279230  0.60085744    -0.39500
O806        O  0.56773783  0.35397274  0.63030152    -0.37200
O807        O  0.29423218  0.32624887  0.52768595    -0.38100
O808        O  0.24248035  0.28712936  0.54948503    -0.34200
O809        O  0.49918166  0.25780842  0.64675175    -0.35600
O810        O  0.56739752  0.28678410  0.62061339    -0.39900
C811        C  0.46001403  0.33915091  0.36115571    -0.13600
C812        C  0.41257875  0.31487916  0.35966815     0.16700
C813        C  0.36619028  0.31557895  0.33550780     0.03000
C814        C  0.36585363  0.34082060  0.31433379    -0.12100
C815        C  0.41073253  0.36606036  0.31656250    -0.03200
C816        C  0.45939420  0.36473383  0.33991763     0.02300
C817        C  0.40159667  0.29441681  0.38698700     0.09100
N818        N  0.65159400  0.29481943  0.32644775     0.65500
H819        H  0.66655574  0.34671631  0.29316710     0.18400
N820        N  0.50400406  0.39055820  0.34434569     0.76000
H821        H  0.49462133  0.33950523  0.38016623     0.09900
C822        C  0.44388224  0.26817463  0.39544504     0.03600
C823        C  0.43336463  0.25198643  0.42318756    -0.05100
C824        C  0.38204557  0.26186259  0.44301034    -0.23500
C825        C  0.33958565  0.28795098  0.43429087     0.12800
C826        C  0.34947339  0.30368586  0.40648714    -0.12700
N827        N  0.49794688  0.25781310  0.37646259     0.64500
H828        H  0.46736131  0.23255185  0.42991769     0.12400
N829        N  0.28708086  0.29949229  0.45362313     0.61200
H830        H  0.31714695  0.32405065  0.40044492     0.08500
O831        O  0.56484421  0.38618645  0.33812175    -0.40300
O832        O  0.48661793  0.41373426  0.36142731    -0.39500
O833        O  0.59155192  0.29973730  0.33385465    -0.39500
O834        O  0.66557931  0.27352954  0.30678739    -0.37200
O835        O  0.22994834  0.28798289  0.45052653    -0.38100
O836        O  0.63153813  0.33081263  0.46605919    -0.34200
O837        O  0.55677301  0.26091701  0.38594600    -0.35600
O838        O  0.48707218  0.23800211  0.35532859    -0.39900
C839        C  0.55741542  0.10330748  0.60949912    -0.13600
C840        C  0.55206030  0.07006211  0.60481247     0.16700
C841        C  0.53889551  0.05894301  0.57503540     0.03000
C842        C  0.53654234  0.08065012  0.55066560    -0.12100
C843        C  0.54944681  0.11357486  0.55450759    -0.03200
C844        C  0.55505079  0.12514026  0.58497037     0.02300
C845        C  0.56228795  0.04790696  0.63123348     0.09100
N846        N  0.52481636  0.02601010  0.56879966     0.65500
H847        H  0.52286370  0.07108620  0.52872357     0.18400
N848        N  0.55755703  0.15880375  0.59177409     0.76000
H849        H  0.23621413  0.11279739  0.63441704     0.09900
C850        C  0.30448335  0.02922183  0.63710918     0.03600
C851        C  0.31828733  0.01118864  0.66336599    -0.05100
C852        C  0.58904071  0.01046912  0.68421601    -0.23500
C853        C  0.53648278  0.03365804  0.68415712     0.12800
C854        C  0.52293982  0.05179261  0.65759502    -0.12700
N855        N  0.35253985  0.02869945  0.61325464     0.64500
H856        H  0.36367962  0.99648409  0.66400637     0.12400
N857        N  0.50075408  0.04132594  0.71145398     0.61200
H858        H  0.48323748  0.06996484  0.65796885     0.08500
O859        O  0.27290690  0.17109359  0.60209672    -0.40300
O860        O  0.50387993  0.17384586  0.59794188    -0.39500
O861        O  0.46495618  0.01894129  0.56440319    -0.39500
O862        O  0.56912477  0.00885205  0.55590798    -0.37200
O863        O  0.54256479  0.56562605  0.72820732    -0.38100
O864        O  0.44142055  0.03259872  0.71406143    -0.34200
O865        O  0.39251706  0.05158879  0.61140523    -0.35600
O866        O  0.36780728  0.00199724  0.60108095    -0.39900
C867        C  0.56285658  0.10945440  0.38781321    -0.13600
C868        C  0.61341134  0.08536983  0.38854195     0.16700
C869        C  0.65364244  0.08252656  0.41486768     0.03000
C870        C  0.64135088  0.10240629  0.43998124    -0.12100
C871        C  0.58816568  0.12493532  0.44038374    -0.03200
C872        C  0.55001417  0.12928091  0.41345657     0.02300
C873        C  0.62282414  0.06278822  0.36236323     0.09100
N874        N  0.70708609  0.05933024  0.41701590     0.65500
H875        H  0.67233157  0.09912789  0.46011252     0.18400
N876        N  0.49769963  0.15313547  0.41176731     0.76000
H877        H  0.53209268  0.11228200  0.36758833     0.09900
C878        C  0.59267974  0.03244010  0.36226274     0.03600
C879        C  0.60754869  0.01003764  0.33911710    -0.05100
C880        C  0.65165361  0.01757935  0.31559298    -0.23500
C881        C  0.36232612  0.04490041  0.31815587     0.12800
C882        C  0.66282634  0.07125462  0.33746211    -0.12700
N883        N  0.54329392  0.02491728  0.38433309     0.64500
H884        H  0.58575685  0.98641632  0.33994533     0.12400
N885        N  0.41518653  0.04983926  0.29691605     0.61200
H886        H  0.38554566  0.08693034  0.34473653     0.08500
O887        O  0.50830359  0.17912215  0.39780876    -0.40300
O888        O  0.43843290  0.14498248  0.41622275    -0.39500
O889        O  0.44280649  0.07132370  0.42041524    -0.39500
O890        O  0.69550107  0.03195281  0.42812369    -0.37200
O891        O  0.39229130  0.55769309  0.26636176    -0.38100
O892        O  0.47426490  0.04252221  0.30450956    -0.34200
O893        O  0.48275555  0.02580743  0.37664989    -0.35600
O894        O  0.55938932  0.01869424  0.41160988    -0.39900
C895        C  0.55153302  0.63950292  0.52689183     0.87200
C896        C  0.61032605  0.66246410  0.52873791    -0.53000
C897        C  0.61461994  0.68368977  0.50499068     0.10100
C898        C  0.56036892  0.67931343  0.48036538     0.21100
C899        C  0.49006520  0.66130718  0.52233383    -0.53700
C900        C  0.49411917  0.68238460  0.49836853     0.10200
C901        C  0.56168232  0.62287685  0.49587368    -0.53300
C902        C  0.56678553  0.64322058  0.47144416     0.10800
H903        H  0.64559170  0.66230890  0.54753568     0.15300
H904        H  0.56414247  0.69642405  0.46095284     0.01100
H905        H  0.44904461  0.66211679  0.53848991     0.15600
H906        H  0.56897938  0.59713474  0.49300932     0.15400
C907        C  0.39167232  0.75327223  0.52861634     0.87200
C908        C  0.33452237  0.72937080  0.53006983    -0.53000
C909        C  0.33004081  0.70954166  0.50519296     0.10100
C910        C  0.38389477  0.71514349  0.48100409     0.21100
C911        C  0.45458689  0.73210919  0.52272694    -0.53700
C912        C  0.45022258  0.71159742  0.49860403     0.10200
C913        C  0.38221015  0.77116402  0.49820863    -0.53300
C914        C  0.37715718  0.75147380  0.47340461     0.10800
H915        H  0.30125161  0.72780362  0.54951855     0.15300
H916        H  0.38087800  0.69896015  0.46089150     0.01100
H917        H  0.49829595  0.73149462  0.53730468     0.15600
H918        H  0.38534390  0.79707445  0.49585983     0.15400
C919        C  0.49095131  0.63247053  0.97921242     0.87200
C920        C  0.42899018  0.65524294  0.98149291    -0.53000
C921        C  0.42841723  0.67551562  0.00590248     0.10100
C922        C  0.48937164  0.67082257  0.02702797     0.21100
C923        C  0.55028543  0.65485542  0.98109806    -0.53700
C924        C  0.54984692  0.67505072  0.00575219     0.10200
C925        C  0.49058124  0.61471607  0.00999028    -0.53300
C926        C  0.49031715  0.63452905  0.03502979     0.10800
H927        H  0.38766383  0.65587987  0.96560708     0.15300
H928        H  0.48955104  0.68687898  0.04715956     0.01100
H929        H  0.58739339  0.65618281  0.96315497     0.15600
H930        H  0.49046021  0.58867496  0.01205782     0.15400
C931        C  0.65051572  0.74696667  0.98017156     0.87200
C932        C  0.71203060  0.72437072  0.98026877    -0.53000
C933        C  0.71540633  0.70315699  0.00424856     0.10100
C934        C  0.65646022  0.70668507  0.02658448     0.21100
C935        C  0.59096355  0.72475726  0.98253590    -0.53700
C936        C  0.59408120  0.70323822  0.00611476     0.10200
C937        C  0.65263298  0.76337756  0.01167675    -0.53300
C938        C  0.65602497  0.74263474  0.03584615     0.10800
H939        H  0.74810492  0.72379730  0.96179468     0.15300
H940        H  0.65857310  0.68954255  0.04599518     0.01100
H941        H  0.55092814  0.72476511  0.96585412     0.15600
H942        H  0.65012400  0.78897557  0.01583225     0.15400
O943        O  0.56708942  0.98008807  0.73057991    -0.57100
C944        C  0.63123163  0.90134903  0.80141152     0.75500
O945        O  0.42214273  0.91537077  0.72561370    -0.58200
C946        C  0.60841710  0.99083025  0.71122246     0.75500
C947        C  0.38636997  0.98448396  0.80650639     0.77900
Cd948      Cd  0.33981683  0.94450421  0.75854805     1.37500
O949        O  0.58254697  0.91862857  0.79120286    -0.57100
O950        O  0.32576269  0.97779672  0.80280010    -0.55900
C951        C  0.37841233  0.89755478  0.71359633     0.77900
O952        O  0.42783812  0.97324321  0.78697546    -0.58300
O953        O  0.36529320  0.90164926  0.79189957    -0.56700
O954        O  0.35419219  0.98347083  0.71952835    -0.56700
O955        O  0.31893034  0.90152272  0.72280760    -0.55900
O956        O  0.45551439  0.97752754  0.21983315    -0.57100
C957        C  0.40653444  0.89571129  0.29366895     0.75500
O958        O  0.63367461  0.97430290  0.27988657    -0.58200
C959        C  0.40953610  0.99072311  0.20349722     0.75500
C960        C  0.69380239  0.89738421  0.20728375     0.77900
Cd961      Cd  0.37684112  0.94432710  0.24892349     1.37500
O962        O  0.45483486  0.91158483  0.28279103    -0.57100
O963        O  0.40470340  0.90561765  0.20865594    -0.55900
C964        C  0.67415501  0.99229157  0.29390355     0.77900
O965        O  0.64772595  0.90983900  0.22384021    -0.58300
O966        O  0.69868961  0.90376824  0.28797393    -0.56700
O967        O  0.69187008  0.98060805  0.21148215    -0.56700
O968        O  0.39651277  0.98467387  0.28689311    -0.55900
C969        C  0.70668702  0.77478013  0.11393391    -0.13600
C970        C  0.65078669  0.79464193  0.12057275     0.16700
C971        C  0.59579129  0.79424775  0.10073119     0.03000
C972        C  0.59702095  0.77425400  0.07511587    -0.12100
C973        C  0.65386685  0.75577102  0.06737980    -0.02400
C974        C  0.71037330  0.75645596  0.08682567     0.02300
C975        C  0.65780105  0.82102200  0.14322233     0.09100
N976        N  0.54171642  0.81688055  0.10401667     0.65500
H977        H  0.55538408  0.77563924  0.05938215     0.18400
N978        N  0.41803318  0.73348090  0.08423832     0.76000
H979        H  0.39437741  0.76820174  0.13367269     0.09900
C980        C  0.62449514  0.82210917  0.17157417     0.03600
C981        C  0.63501200  0.84788430  0.19168110    -0.05100
C982        C  0.68024550  0.87204324  0.18453947    -0.23500
C983        C  0.71342620  0.87076062  0.15618020     0.12800
C984        C  0.70001563  0.84608538  0.13562885    -0.12700
N985        N  0.58184040  0.79691520  0.18086160     0.64500
H986        H  0.60960763  0.84833068  0.21349614     0.12400
N987        N  0.75973331  0.89462410  0.14735903     0.61200
H988        H  0.72284461  0.84653945  0.11342073     0.08500
O989        O  0.44896483  0.71715306  0.10433449    -0.40300
O990        O  0.44891813  0.74238823  0.06076005    -0.39500
O991        O  0.54123234  0.84234970  0.08819569    -0.39500
O992        O  0.48787092  0.80735283  0.11512215    -0.37200
O993        O  0.74158964  0.91573404  0.12812526    -0.38100
O994        O  0.82116754  0.88869430  0.15095401    -0.34200
O995        O  0.60439143  0.77555128  0.19892787    -0.35600
O996        O  0.51964812  0.80138962  0.17879877    -0.39900
C997        C  0.58134943  0.85466121  0.87175123    -0.13600
C998        C  0.63115976  0.83030245  0.87207083     0.16700
C999        C  0.67441522  0.82717316  0.84685303     0.03000
C1000       C  0.66994893  0.84957195  0.82312774    -0.12100
C1001       C  0.62368760  0.87546641  0.82403093    -0.03200
C1002       C  0.57743092  0.87733773  0.84811906     0.02300
C1003       C  0.63793979  0.80925160  0.89930560     0.09100
N1004       N  0.72571428  0.80270159  0.84564810     0.65500
H1005       H  0.70514058  0.84746545  0.80444191     0.18400
N1006       N  0.52938506  0.90317588  0.85023121     0.76000
H1007       H  0.54621851  0.85661927  0.89043601     0.09900
C1008       C  0.64460655  0.82248377  0.92866833     0.03600
C1009       C  0.64900544  0.80238510  0.95414914    -0.05100
C1010       C  0.64674547  0.76857295  0.95159040    -0.23500
C1011       C  0.64104581  0.75535074  0.92168183     0.12800
C1012       C  0.63612986  0.77574160  0.89615016    -0.12700
N1013       N  0.30679819  0.85590201  0.93794191     0.64500
H1014       H  0.65540617  0.81427425  0.97556556     0.12400
N1015       N  0.64053227  0.72131527  0.91647412     0.61200
H1016       H  0.63023481  0.76525523  0.87371420     0.08500
O1017       O  0.53963046  0.92582079  0.86868647    -0.40300
O1018       O  0.47079888  0.89866551  0.84108877    -0.39500
O1019       O  0.39679349  0.77769293  0.83848249    -0.39500
O1020       O  0.78258398  0.80874795  0.85611937    -0.37200
O1021       O  0.69324568  0.70736979  0.90719190    -0.38100
O1022       O  0.58558921  0.70823330  0.91135670    -0.34200
O1023       O  0.25805081  0.87037930  0.95044571    -0.35600
O1024       O  0.36287599  0.86892707  0.93803670    -0.39900
C1025       C  0.44760601  0.53186612  0.13205383    -0.13600
C1026       C  0.49313308  0.55505850  0.14089967     0.16700
C1027       C  0.52313884  0.55253908  0.16997297     0.03000
C1028       C  0.50491737  0.52776570  0.19004013    -0.12100
C1029       C  0.45615708  0.50573657  0.18178497    -0.03200
C1030       C  0.38549172  0.01800248  0.15292125     0.02300
C1031       C  0.50372176  0.58222113  0.11948032     0.09100
N1032       N  0.57010155  0.57548293  0.17997943     0.65500
H1033       H  0.52659532  0.52675280  0.21271414     0.18400
N1034       N  0.33798467  0.99440649  0.14489732     0.76000
H1035       H  0.42546689  0.53308000  0.10947651     0.09900
C1036       C  0.55596129  0.58110228  0.09810507     0.03600
C1037       C  0.55285186  0.60076658  0.07214358    -0.05100
C1038       C  0.49725152  0.62091301  0.06629737    -0.23500
C1039       C  0.44687787  0.62382369  0.08868717     0.12800
C1040       C  0.45140712  0.60492770  0.11532130    -0.12700
N1041       N  0.60925330  0.55790510  0.10068985     0.64500
H1042       H  0.59199512  0.59845550  0.05520416     0.12400
N1043       N  0.38652472  0.64179216  0.08296917     0.61200
H1044       H  0.41026595  0.60550482  0.13130753     0.08500
O1045       O  0.27702875  0.00041330  0.14973612    -0.40300
O1046       O  0.35406667  0.97340004  0.12529260    -0.39500
O1047       O  0.55118748  0.59744201  0.19812360    -0.39500
O1048       O  0.63141241  0.56848315  0.17795743    -0.37200
O1049       O  0.34526604  0.63060113  0.06429113    -0.38100
O1050       O  0.36643228  0.66233520  0.10230920    -0.34200
O1051       O  0.60673330  0.53228642  0.08529722    -0.35600
O1052       O  0.66489626  0.56701455  0.11030134    -0.39900
C1053       C  0.43732458  0.52133876  0.88059771    -0.13600
C1054       C  0.48019252  0.54635234  0.87350353     0.16700
C1055       C  0.50688386  0.54808937  0.84368249     0.03000
C1056       C  0.48757188  0.52590085  0.82136366    -0.12100
C1057       C  0.44066754  0.50246395  0.82795029    -0.03200
C1058       C  0.41713666  0.49959307  0.85823687     0.02300
C1059       C  0.49190699  0.57082645  0.89752826     0.09100
N1060       N  0.55238213  0.57241748  0.83525112     0.65500
H1061       H  0.50633720  0.52829070  0.79829357     0.18400
N1062       N  0.65884275  0.98420454  0.86647381     0.76000
H1063       H  0.73976642  0.52502157  0.89477475     0.09900
C1064       C  0.45258443  0.59927056  0.89888110     0.03600
C1065       C  0.45506287  0.61910191  0.92458063    -0.05100
C1066       C  0.49417812  0.61092224  0.95042328    -0.23500
C1067       C  0.53849331  0.58374810  0.94765499     0.12800
C1068       C  0.53537751  0.56360192  0.92182786    -0.12700
N1069       N  0.40748167  0.60798812  0.87482451     0.64500
H1070       H  0.42615406  0.64126784  0.92341732     0.12400
N1071       N  0.58872614  0.57674243  0.97003887     0.61200
H1072       H  0.56691503  0.54205787  0.92080821     0.08500
O1073       O  0.71090371  0.45520992  0.87263237    -0.40300
O1074       O  0.59696329  0.98786938  0.87054311    -0.39500
O1075       O  0.61229219  0.56411367  0.83044013    -0.39500
O1076       O  0.52970758  0.59790959  0.82289331    -0.37200
O1077       O  0.58132242  0.55327716  0.98799373    -0.38100
O1078       O  0.64667895  0.58675259  0.96548127    -0.34200
O1079       O  0.65800258  0.58836631  0.88427435    -0.35600
O1080       O  0.71130013  0.62168890  0.85547384    -0.39900
C1081       C  0.37118528  0.82455806  0.66153940    -0.13600
C1082       C  0.41452476  0.83318563  0.63812397     0.16700
C1083       C  0.44955153  0.86212780  0.64063467     0.03000
C1084       C  0.44020235  0.88194583  0.66632602    -0.12100
C1085       C  0.39454607  0.87394183  0.68918081    -0.03200
C1086       C  0.36031934  0.84470645  0.68669686     0.02300
C1087       C  0.41393708  0.81384363  0.60975274     0.09100
N1088       N  0.49311907  0.87229292  0.61697677     0.65500
H1089       H  0.46631445  0.90444383  0.66764558     0.18400
N1090       N  0.61700023  0.83924222  0.70791134     0.76000
H1091       H  0.34334344  0.80260425  0.65963678     0.09900
C1092       C  0.44576711  0.78334461  0.60784009     0.03600
C1093       C  0.43574654  0.76393328  0.58223358    -0.05100
C1094       C  0.39593750  0.77449799  0.55735628    -0.23500
C1095       C  0.35948506  0.80407324  0.56087198     0.12800
C1096       C  0.37022562  0.82357392  0.58643672    -0.12700
N1097       N  0.48799816  0.77141174  0.63179756     0.64500
H1098       H  0.45897026  0.74016705  0.58241013     0.12400
N1099       N  0.30822487  0.81406265  0.54003980     0.61200
H1100       H  0.34155973  0.84592102  0.58882676     0.08500
O1101       O  0.62949459  0.82033270  0.72990611    -0.40300
O1102       O  0.55733520  0.84390043  0.69964720    -0.39500
O1103       O  0.47187688  0.89265258  0.59760941    -0.39500
O1104       O  0.55507186  0.86850594  0.62071527    -0.37200
O1105       O  0.31613508  0.83939256  0.52461126    -0.38100
O1106       O  0.24984281  0.80457993  0.54453145    -0.34200
O1107       O  0.46617460  0.75042176  0.64983808    -0.35600
O1108       O  0.55009727  0.77433775  0.62923544    -0.39900
C1109       C  0.45540266  0.84335834  0.36260643    -0.13600
C1110       C  0.40883626  0.81881230  0.35985400     0.16700
C1111       C  0.36700909  0.81848816  0.33409363     0.03000
C1112       C  0.37021168  0.84305476  0.31236967    -0.12100
C1113       C  0.41438703  0.86851922  0.31557693    -0.03200
C1114       C  0.45865102  0.86818139  0.34071573     0.02300
C1115       C  0.39643852  0.79760120  0.38641188     0.09100
N1116       N  0.66306182  0.79692777  0.33438965     0.65500
H1117       H  0.68240017  0.84457854  0.29700322     0.18400
N1118       N  0.50325572  0.89389400  0.34579336     0.76000
H1119       H  0.48687968  0.84421891  0.38270243     0.09900
C1120       C  0.44190380  0.77301992  0.39569304     0.03600
C1121       C  0.43222770  0.75684055  0.42337417    -0.05100
C1122       C  0.37805745  0.76483559  0.44213827    -0.23500
C1123       C  0.33114537  0.78855872  0.43235033     0.12800
C1124       C  0.34057514  0.80459494  0.40461133    -0.12700
N1125       N  0.49864678  0.76447277  0.37763465     0.64500
H1126       H  0.46899638  0.73901894  0.43097097     0.12400
N1127       N  0.27430665  0.79703957  0.45047550     0.61200
H1128       H  0.30533279  0.82348957  0.39776919     0.08500
O1129       O  0.56386539  0.88976348  0.33897763    -0.40300
O1130       O  0.48687506  0.91592442  0.36435610    -0.39500
O1131       O  0.60569483  0.80662308  0.34238572    -0.39500
O1132       O  0.66853047  0.77327512  0.31643065    -0.37200
O1133       O  0.21924360  0.78462997  0.44429500    -0.38100
O1134       O  0.64998787  0.83558155  0.46888909    -0.34200
O1135       O  0.55596506  0.76872731  0.38848156    -0.35600
O1136       O  0.49194264  0.74476018  0.35601306    -0.39900
C1137       C  0.56288541  0.60751922  0.60954356    -0.13600
C1138       C  0.56198323  0.57415966  0.60488023     0.16700
C1139       C  0.54527443  0.56249857  0.57572860     0.03000
C1140       C  0.53736945  0.58402418  0.55136169    -0.12100
C1141       C  0.54681606  0.61733589  0.55494287    -0.03200
C1142       C  0.55348833  0.62915260  0.58522161     0.02300
C1143       C  0.57807740  0.55243652  0.63087995     0.09100
N1144       N  0.53248459  0.52921817  0.57048225     0.65500
H1145       H  0.52255807  0.57404025  0.52975612     0.18400
N1146       N  0.54921125  0.66285168  0.59200755     0.76000
H1147       H  0.22748331  0.62196876  0.63244722     0.09900
C1148       C  0.30508231  0.54033821  0.63688420     0.03600
C1149       C  0.32083882  0.52277961  0.66314403    -0.05100
C1150       C  0.61178040  0.51419064  0.68236045    -0.23500
C1151       C  0.55726981  0.53629246  0.68367222     0.12800
C1152       C  0.54005627  0.55465073  0.65773937    -0.12700
N1153       N  0.35258913  0.54047855  0.61279321     0.64500
H1154       H  0.36727345  0.50887452  0.66354374     0.12400
N1155       N  0.52318049  0.54280499  0.71166600     0.61200
H1156       H  0.49819738  0.57160369  0.65892914     0.08500
O1157       O  0.25933919  0.68041031  0.59724262    -0.40300
O1158       O  0.49303868  0.67511359  0.59877783    -0.39500
O1159       O  0.47298225  0.52126615  0.56658092    -0.39500
O1160       O  0.57771067  0.51164122  0.55881645    -0.37200
O1161       O  0.52123852  0.06358451  0.72837839    -0.38100
O1162       O  0.46483498  0.53293468  0.71504126    -0.34200
O1163       O  0.39596357  0.56195338  0.61273553    -0.35600
O1164       O  0.36473608  0.51436098  0.59899859    -0.39900
C1165       C  0.56743279  0.61773897  0.38729865    -0.13600
C1166       C  0.61635589  0.59286717  0.38794935     0.16700
C1167       C  0.65198645  0.58727305  0.41529565     0.03000
C1168       C  0.63851765  0.60619314  0.44096963    -0.12100
C1169       C  0.58720576  0.62976150  0.44111867    -0.03200
C1170       C  0.55221971  0.63598433  0.41366574     0.02300
C1171       C  0.62610336  0.57143851  0.36092680     0.09100
N1172       N  0.69945288  0.56129472  0.41836758     0.65500
H1173       H  0.66636947  0.60106862  0.46172537     0.18400
N1174       N  0.49919645  0.65947264  0.41241822     0.76000
H1175       H  0.53917960  0.62217769  0.36654709     0.09900
C1176       C  0.58342239  0.54559369  0.35588821     0.03600
C1177       C  0.59536483  0.52389961  0.33188112    -0.05100
C1178       C  0.64945816  0.52772497  0.31216861    -0.23500
C1179       C  0.35292009  0.54810654  0.31544877     0.12800
C1180       C  0.67838061  0.57630775  0.34033509    -0.12700
N1181       N  0.52717608  0.54131510  0.37502682     0.64500
H1182       H  0.56343839  0.50340888  0.32927895     0.12400
N1183       N  0.40584571  0.55238496  0.29410653     0.61200
H1184       H  0.37645826  0.59058614  0.34133368     0.08500
O1185       O  0.51021597  0.68670103  0.40090133    -0.40300
O1186       O  0.43991853  0.65041681  0.41472386    -0.39500
O1187       O  0.41788475  0.55732496  0.42515880    -0.39500
O1188       O  0.67860212  0.53352025  0.42424092    -0.37200
O1189       O  0.40172903  0.05528590  0.26917444    -0.38100
O1190       O  0.46455962  0.54421659  0.30150690    -0.34200
O1191       O  0.47355317  0.55628114  0.36872196    -0.35600
O1192       O  0.53474710  0.52844046  0.40095868    -0.39900
C1193       C  0.87710375  0.13459620  0.52345357     0.87200
C1194       C  0.93606055  0.15732035  0.52638807    -0.53000
C1195       C  0.94427937  0.17772862  0.50234431     0.10100
C1196       C  0.89258678  0.17313043  0.47645606     0.21100
C1197       C  0.81663060  0.15642031  0.51670417    -0.53700
C1198       C  0.82417132  0.17707858  0.49261778     0.10200
C1199       C  0.89034449  0.11707475  0.49306864    -0.53300
C1200       C  0.89826159  0.13675674  0.46831646     0.10800
H1201       H  0.96874576  0.15746515  0.54616242     0.15300
H1202       H  0.89905584  0.18965863  0.45676736     0.01100
H1203       H  0.77395035  0.15796364  0.53187611     0.15600
H1204       H  0.89520238  0.09121866  0.49062278     0.15400
C1205       C  0.73217569  0.24915544  0.52539792     0.87200
C1206       C  0.67424512  0.22581571  0.52840842    -0.53000
C1207       C  0.66470470  0.20649840  0.50357325     0.10100
C1208       C  0.71497517  0.21207381  0.47769662     0.21100
C1209       C  0.79303658  0.22755269  0.51713248    -0.53700
C1210       C  0.78390913  0.20747384  0.49300800     0.10200
C1211       C  0.71887152  0.26773959  0.49571127    -0.53300
C1212       C  0.70913569  0.24872322  0.47069458     0.10800
H1213       H  0.64410472  0.22422759  0.54891102     0.15300
H1214       H  0.70801744  0.19627873  0.45754861     0.01100
H1215       H  0.83894792  0.22590331  0.53002638     0.15600
H1216       H  0.72244750  0.29372888  0.49417484     0.15400
C1217       C  0.74183683  0.14591336  0.98016027     0.87200
C1218       C  0.68032121  0.16880552  0.98298126    -0.53000
C1219       C  0.68114048  0.18894264  0.00756827     0.10100
C1220       C  0.74303161  0.18384996  0.02814280     0.21100
C1221       C  0.80133677  0.16807526  0.98156523    -0.53700
C1222       C  0.80221994  0.18803280  0.00620584     0.10200
C1223       C  0.74214143  0.12797341  0.01071586    -0.53300
C1224       C  0.74420812  0.14748391  0.03595486     0.10800
H1225       H  0.63946195  0.17030281  0.96685386     0.15300
H1226       H  0.74469761  0.19977276  0.04831333     0.01100
H1227       H  0.83786346  0.16936574  0.96333502     0.15600
H1228       H  0.74256435  0.10188792  0.01244513     0.15400
C1229       C  0.90497105  0.25963998  0.98164655     0.87200
C1230       C  0.96651317  0.23690866  0.98169326    -0.53000
C1231       C  0.96874454  0.21494858  0.00498681     0.10100
C1232       C  0.90935321  0.21825371  0.02715125     0.21100
C1233       C  0.84536650  0.23739660  0.98304287    -0.53700
C1234       C  0.84754802  0.21557975  0.00641759     0.10200
C1235       C  0.90607172  0.27536878  0.01354519    -0.53300
C1236       C  0.90851406  0.25394832  0.03723124     0.10800
H1237       H  0.00378824  0.23698455  0.96376460     0.15300
H1238       H  0.91091879  0.20060227  0.04619321     0.01100
H1239       H  0.80609542  0.23770266  0.96596594     0.15600
H1240       H  0.90551697  0.30094086  0.01812710     0.15400
O1241       O  0.92147834  0.48229854  0.72887218    -0.57100
C1242       C  0.95298813  0.40335494  0.79631319     0.75500
O1243       O  0.76097820  0.41429786  0.71910510    -0.58200
C1244       C  0.96378433  0.49417374  0.71073479     0.75500
C1245       C  0.74465877  0.48394065  0.79635570     0.77900
Cd1246     Cd  0.67990648  0.44554539  0.75095419     1.37500
O1247       O  0.91550553  0.42599770  0.78574441    -0.57100
O1248       O  0.68229717  0.48160480  0.79398906    -0.55900
C1249       C  0.71819911  0.39507987  0.70859142     0.77900
O1250       O  0.77993765  0.46905381  0.77654413    -0.58300
O1251       O  0.68730400  0.40197194  0.78529848    -0.56700
O1252       O  0.69131204  0.48214456  0.70958078    -0.56700
O1253       O  0.65892495  0.39909812  0.71795738    -0.55900
O1254       O  0.80842145  0.47101916  0.22419838    -0.57100
C1255       C  0.73617832  0.39987616  0.29718949     0.75500
O1256       O  0.95229910  0.47890634  0.28031541    -0.58200
C1257       C  0.77391180  0.48250164  0.20207316     0.75500
C1258       C  0.98366401  0.39734348  0.21298917     0.77900
Cd1259     Cd  0.70963471  0.44876405  0.25131562     1.37500
O1260       O  0.78513853  0.41462570  0.28571041    -0.57100
O1261       O  0.71007910  0.39997196  0.22136418    -0.55900
C1262       C  0.99595730  0.49553344  0.29375196     0.77900
O1263       O  0.94601788  0.41981039  0.22361867    -0.58300
O1264       O  0.00956016  0.40481970  0.29202627    -0.56700
O1265       O  0.02842825  0.47680066  0.20902211    -0.56700
O1266       O  0.72792313  0.49418609  0.28517904    -0.55900
C1267       C  0.96920906  0.27918766  0.11586889    -0.13600
C1268       C  0.91489499  0.29826529  0.12608361     0.16700
C1269       C  0.85553214  0.29892461  0.10849665     0.03000
C1270       C  0.85474882  0.28337885  0.08005992    -0.12100
C1271       C  0.91008660  0.26566148  0.06926274    -0.02400
C1272       C  0.96808795  0.26337907  0.08749110     0.02300
C1273       C  0.92627067  0.32256438  0.15069787     0.09100
N1274       N  0.79635077  0.31580886  0.11887338     0.65500
H1275       H  0.81116751  0.28589190  0.06571988     0.18400
N1276       N  0.68745005  0.25273328  0.07581101     0.76000
H1277       H  0.67457216  0.28340005  0.12787231     0.09900
C1278       C  0.96042696  0.31508730  0.17821670     0.03600
C1279       C  0.97807743  0.33988996  0.19816694    -0.05100
C1280       C  0.95944678  0.37211194  0.19223944    -0.23500
C1281       C  0.92235270  0.37940783  0.16571443     0.12800
C1282       C  0.90825780  0.35498237  0.14487853    -0.12700
N1283       N  0.97537593  0.28251450  0.18697939     0.64500
H1284       H  0.00569429  0.33383589  0.21877261     0.12400
N1285       N  0.90149598  0.41164350  0.15854697     0.61200
H1286       H  0.88397070  0.36168014  0.12360881     0.08500
O1287       O  0.72857112  0.24004457  0.09436840    -0.40300
O1288       O  0.70698227  0.25930461  0.04919993    -0.39500
O1289       O  0.75562334  0.32811648  0.09990234    -0.39500
O1290       O  0.78181968  0.31618800  0.14690838    -0.37200
O1291       O  0.84277880  0.42061564  0.16507558    -0.38100
O1292       O  0.93169334  0.42627117  0.13770275    -0.34200
O1293       O  0.03529431  0.27261250  0.18733530    -0.35600
O1294       O  0.93313061  0.26766355  0.20255966    -0.39900
C1295       C  0.87332133  0.36886242  0.86756003    -0.13600
C1296       C  0.91571746  0.34201513  0.87296656     0.16700
C1297       C  0.96522405  0.33401662  0.85114023     0.03000
C1298       C  0.97278927  0.35335838  0.82546175    -0.12100
C1299       C  0.93330757  0.38131569  0.82099189    -0.03200
C1300       C  0.88233163  0.38878308  0.84209487     0.02300
C1301       C  0.90718255  0.32216635  0.90089346     0.09100
N1302       N  0.01051738  0.30718572  0.85514213     0.65500
H1303       H  0.01206672  0.34696048  0.80946773     0.18400
N1304       N  0.84165274  0.41726700  0.83906844     0.76000
H1305       H  0.83351182  0.37472682  0.88339002     0.09900
C1306       C  0.90475016  0.33565738  0.93043080     0.03600
C1307       C  0.90219535  0.31553886  0.95605019    -0.05100
C1308       C  0.90266601  0.28165532  0.95334145    -0.23500
C1309       C  0.90170863  0.26849515  0.92334173     0.12800
C1310       C  0.90264877  0.28877125  0.89785375    -0.12700
N1311       N  0.57022453  0.36891670  0.93133987     0.64500
H1312       H  0.90112086  0.32735146  0.97784072     0.12400
N1313       N  0.90150940  0.23450727  0.91793608     0.61200
H1314       H  0.90087341  0.27809978  0.87533406     0.08500
O1315       O  0.85816013  0.44246464  0.85294153    -0.40300
O1316       O  0.78256280  0.41483120  0.82981196    -0.39500
O1317       O  0.68063917  0.28141670  0.83640329    -0.39500
O1318       O  0.06647843  0.31185668  0.86725196    -0.37200
O1319       O  0.95552968  0.22038681  0.91062318    -0.38100
O1320       O  0.84750461  0.22186938  0.91028532    -0.34200
O1321       O  0.51506548  0.38279323  0.93716698    -0.35600
O1322       O  0.62319199  0.38284262  0.93837388    -0.39900
C1323       C  0.72853811  0.04395669  0.13614636    -0.13600
C1324       C  0.77541949  0.06759978  0.14147960     0.16700
C1325       C  0.81687270  0.06487721  0.16742181     0.03000
C1326       C  0.80931191  0.03904266  0.18782290    -0.12100
C1327       C  0.76026882  0.01604411  0.18303782    -0.03200
C1328       C  0.77781643  0.50181179  0.14715900     0.02300
C1329       C  0.77932986  0.09396416  0.11873100     0.09100
N1330       N  0.86613993  0.08814539  0.17368694     0.65500
H1331       H  0.84078262  0.03746975  0.20792079     0.18400
N1332       N  0.72935673  0.47929850  0.13785631     0.76000
H1333       H  0.69870295  0.04494743  0.11561511     0.09900
C1334       C  0.82098466  0.09046602  0.09317667     0.03600
C1335       C  0.81168236  0.11043175  0.06785588    -0.05100
C1336       C  0.75917365  0.13324197  0.06648526    -0.23500
C1337       C  0.71961659  0.13841669  0.09279896     0.12800
C1338       C  0.73034518  0.11878499  0.11873777    -0.12700
N1339       N  0.86927514  0.06484647  0.09122342     0.64500
H1340       H  0.84331458  0.10648434  0.04809412     0.12400
N1341       N  0.66486466  0.16107440  0.09287466     0.61200
H1342       H  0.69685187  0.12122888  0.13801570     0.08500
O1343       O  0.66875358  0.48786363  0.13932566    -0.40300
O1344       O  0.74656921  0.45716730  0.11954110    -0.39500
O1345       O  0.85492394  0.10879187  0.19428516    -0.39500
O1346       O  0.92545840  0.08224252  0.16562710    -0.37200
O1347       O  0.60949123  0.15248648  0.08248853    -0.38100
O1348       O  0.66601149  0.18447032  0.11119867    -0.34200
O1349       O  0.85259293  0.03855399  0.07935557    -0.35600
O1350       O  0.92987498  0.07190380  0.09150018    -0.39900
C1351       C  0.70793144  0.03521319  0.87972722    -0.13600
C1352       C  0.74397677  0.06264394  0.87256916     0.16700
C1353       C  0.77124528  0.06554597  0.84292829     0.03000
C1354       C  0.76042295  0.04145242  0.82108127    -0.12100
C1355       C  0.72203031  0.01472027  0.82803930    -0.03200
C1356       C  0.69651080  0.01148661  0.85787060     0.02300
C1357       C  0.75182533  0.08686837  0.89714981     0.09100
N1358       N  0.81005682  0.09243325  0.83435289     0.65500
H1359       H  0.78010924  0.04427655  0.79822511     0.18400
N1360       N  0.01898418  0.48328039  0.86360693     0.76000
H1361       H  0.97882332  0.03775162  0.89390538     0.09900
C1362       C  0.71058665  0.11470826  0.89871274     0.03600
C1363       C  0.70851398  0.13319955  0.92530961    -0.05100
C1364       C  0.74596534  0.12463056  0.95144248    -0.23500
C1365       C  0.79233401  0.09829129  0.94865148     0.12800
C1366       C  0.79298237  0.07919595  0.92216008    -0.12700
N1367       N  0.66816217  0.12428992  0.87400304     0.64500
H1368       H  0.67768231  0.15481521  0.92459527     0.12400
N1369       N  0.84112442  0.09126431  0.97170282     0.61200
H1370       H  0.82589497  0.05810735  0.92111128     0.08500
O1371       O  0.94398278  0.96964486  0.87482211    -0.40300
O1372       O  0.96094151  0.49562098  0.86393460    -0.39500
O1373       O  0.87138021  0.08763186  0.82953543    -0.39500
O1374       O  0.78119657  0.11604967  0.82131138    -0.37200
O1375       O  0.83489390  0.06657448  0.98823710    -0.38100
O1376       O  0.89789198  0.10333685  0.96918593    -0.34200
O1377       O  0.91928716  0.09918329  0.88588605    -0.35600
O1378       O  0.98074338  0.12864857  0.85673796    -0.39900
C1379       C  0.71344719  0.32016667  0.65858984    -0.13600
C1380       C  0.75718859  0.32846613  0.63518417     0.16700
C1381       C  0.79243482  0.35728320  0.63749674     0.03000
C1382       C  0.78203608  0.37768236  0.66264303    -0.12100
C1383       C  0.73542019  0.37031728  0.68529598    -0.03200
C1384       C  0.70195937  0.34076934  0.68342272     0.02300
C1385       C  0.75598972  0.30942390  0.60668051     0.09100
N1386       N  0.83605226  0.36712500  0.61374154     0.65500
H1387       H  0.80785252  0.40028771  0.66353194     0.18400
N1388       N  0.96749283  0.33411246  0.70416837     0.76000
H1389       H  0.68589474  0.29810439  0.65692600     0.09900
C1390       C  0.79894629  0.28277278  0.60158383     0.03600
C1391       C  0.79023521  0.26344641  0.57580499    -0.05100
C1392       C  0.73985311  0.27035658  0.55396361    -0.23500
C1393       C  0.69498101  0.29651114  0.56028137     0.12800
C1394       C  0.70430676  0.31584849  0.58601766    -0.12700
N1395       N  0.85095354  0.27439610  0.62260554     0.64500
H1396       H  0.82243181  0.24238966  0.57415393     0.12400
N1397       N  0.63898093  0.30394453  0.54117264     0.61200
H1398       H  0.66937767  0.33562652  0.59042613     0.08500
O1399       O  0.98432997  0.31404292  0.72462652    -0.40300
O1400       O  0.90647578  0.33834012  0.69804350    -0.39500
O1401       O  0.81495963  0.38728278  0.59415550    -0.39500
O1402       O  0.89797688  0.36294563  0.61729452    -0.37200
O1403       O  0.63579175  0.33112984  0.52823073    -0.38100
O1404       O  0.58600438  0.28876651  0.54501266    -0.34200
O1405       O  0.84300685  0.25106962  0.64065935    -0.35600
O1406       O  0.90927146  0.28302197  0.61668313    -0.39900
C1407       C  0.78492904  0.34297155  0.36291387    -0.13600
C1408       C  0.74008756  0.31800184  0.35808722     0.16700
C1409       C  0.69849506  0.31935287  0.33223999     0.03000
C1410       C  0.70038326  0.34583475  0.31249156    -0.12100
C1411       C  0.74321270  0.37148614  0.31776739    -0.03200
C1412       C  0.78705044  0.36961108  0.34300653     0.02300
C1413       C  0.72545321  0.29623227  0.38394899     0.09100
N1414       N  0.97250225  0.29421551  0.33273025     0.65500
H1415       H  0.98855486  0.34498872  0.29882370     0.18400
N1416       N  0.82935697  0.39560633  0.35047435     0.76000
H1417       H  0.81553720  0.34275085  0.38333054     0.09900
C1418       C  0.76010548  0.26678138  0.38956099     0.03600
C1419       C  0.75065941  0.25048088  0.41730010    -0.05100
C1420       C  0.70683824  0.26285918  0.43949476    -0.23500
C1421       C  0.66894385  0.29116820  0.43276528     0.12800
C1422       C  0.67895135  0.30754165  0.40533959    -0.12700
N1423       N  0.80531655  0.25316113  0.36773927     0.64500
H1424       H  0.78025128  0.22892741  0.42215180     0.12400
N1425       N  0.62064570  0.30408648  0.45357217     0.61200
H1426       H  0.65130922  0.32989130  0.40104251     0.08500
O1427       O  0.89070316  0.39286440  0.34461664    -0.40300
O1428       O  0.80990583  0.41607329  0.37001693    -0.39500
O1429       O  0.91682510  0.30298768  0.34357422    -0.39500
O1430       O  0.97434788  0.27296622  0.31216279    -0.37200
O1431       O  0.56138552  0.29496656  0.45146167    -0.38100
O1432       O  0.94949698  0.31800642  0.46281884    -0.34200
O1433       O  0.86637617  0.25095305  0.37442792    -0.35600
O1434       O  0.78274542  0.23477781  0.34749698    -0.39900
C1435       C  0.87578120  0.10770055  0.60772397    -0.13600
C1436       C  0.88076545  0.07415883  0.60479711     0.16700
C1437       C  0.87129590  0.06023713  0.57588993     0.03000
C1438       C  0.86520737  0.07996807  0.55012889    -0.12100
C1439       C  0.86888149  0.11376622  0.55221659    -0.03200
C1440       C  0.86816376  0.12756608  0.58196794     0.02300
C1441       C  0.89699107  0.05441799  0.63207086     0.09100
N1442       N  0.86566172  0.02617762  0.57215751     0.65500
H1443       H  0.85690358  0.06807252  0.52869306     0.18400
N1444       N  0.85964916  0.16155601  0.58664717     0.76000
H1445       H  0.56468200  0.11241886  0.63241372     0.09900
C1446       C  0.61612136  0.02547849  0.63185227     0.03600
C1447       C  0.62789852  0.00663960  0.65782229    -0.05100
C1448       C  0.92684300  0.01741114  0.68471929    -0.23500
C1449       C  0.86703808  0.03587859  0.68302392     0.12800
C1450       C  0.85225413  0.05391874  0.65662374    -0.12700
N1451       N  0.66423420  0.02419731  0.60790812     0.64500
H1452       H  0.66989992  0.98969932  0.65769805     0.12400
N1453       N  0.82224349  0.03775804  0.70821043     0.61200
H1454       H  0.80585242  0.06777473  0.65535358     0.08500
O1455       O  0.61162990  0.17008379  0.60116932    -0.40300
O1456       O  0.80142694  0.17303804  0.59029432    -0.39500
O1457       O  0.80828681  0.01455341  0.57167615    -0.39500
O1458       O  0.91252674  0.01059262  0.55938215    -0.37200
O1459       O  0.85863146  0.56331583  0.72822782    -0.38100
O1460       O  0.76975778  0.02185442  0.70724085    -0.34200
O1461       O  0.70945927  0.04474997  0.60783346    -0.35600
O1462       O  0.67354386  0.99813998  0.59354786    -0.39900
C1463       C  0.89307165  0.11049165  0.38417619    -0.13600
C1464       C  0.93910152  0.08435661  0.38470013     0.16700
C1465       C  0.97370141  0.07751500  0.41203385     0.03000
C1466       C  0.96343054  0.09692415  0.43770466    -0.12100
C1467       C  0.91563614  0.12220679  0.43794548    -0.03200
C1468       C  0.88037479  0.12911697  0.41062141     0.02300
C1469       C  0.94951593  0.06360169  0.35721824     0.09100
N1470       N  0.01569762  0.04941478  0.41510851     0.65500
H1471       H  0.99076603  0.09088883  0.45839154     0.18400
N1472       N  0.82930828  0.15363700  0.40959734     0.76000
H1473       H  0.86533082  0.11579177  0.36344906     0.09900
C1474       C  0.90472363  0.03919687  0.34993677     0.03600
C1475       C  0.91878665  0.01740528  0.32620701    -0.05100
C1476       C  0.97776951  0.01938177  0.30931716    -0.23500
C1477       C  0.67724879  0.04888625  0.31411024     0.12800
C1478       C  0.00669009  0.06681213  0.33920631    -0.12700
N1479       N  0.84533603  0.03575111  0.36711439     0.64500
H1480       H  0.88478565  0.99805436  0.32188946     0.12400
N1481       N  0.71644506  0.05836149  0.28852320     0.61200
H1482       H  0.68409659  0.09497762  0.33652288     0.08500
O1483       O  0.84162868  0.18012953  0.39690836    -0.40300
O1484       O  0.76947079  0.14587904  0.41313434    -0.39500
O1485       O  0.76554473  0.06958967  0.41858691    -0.39500
O1486       O  0.98902558  0.02268303  0.42001802    -0.37200
O1487       O  0.72872113  0.56873039  0.26768135    -0.38100
O1488       O  0.77896662  0.05474063  0.28946619    -0.34200
O1489       O  0.79374693  0.05158590  0.35934893    -0.35600
O1490       O  0.84717074  0.02116466  0.39241195    -0.39900
C1491       C  0.88827106  0.63748214  0.52540030     0.87200
C1492       C  0.94644833  0.66087251  0.52694346    -0.53000
C1493       C  0.94889411  0.68249918  0.50343712     0.10100
C1494       C  0.89281335  0.67856125  0.47960073     0.21100
C1495       C  0.82588730  0.65897415  0.52204201    -0.53700
C1496       C  0.82776637  0.68080393  0.49861956     0.10200
C1497       C  0.89652923  0.62172232  0.49377030    -0.53300
C1498       C  0.89930173  0.64280663  0.46975098     0.10800
H1499       H  0.98283089  0.66051996  0.54530538     0.15300
H1500       H  0.89482501  0.69613649  0.46047951     0.01100
H1501       H  0.78576882  0.65902203  0.53865969     0.15600
H1502       H  0.90443025  0.59618120  0.48994995     0.15400
C1503       C  0.72746687  0.75192992  0.53117831     0.87200
C1504       C  0.66796675  0.72943081  0.53124261    -0.53000
C1505       C  0.66295868  0.71033120  0.50596244     0.10100
C1506       C  0.71865748  0.71553797  0.48233855     0.21100
C1507       C  0.78836506  0.72924306  0.52555970    -0.53700
C1508       C  0.78359460  0.70991442  0.50058945     0.10200
C1509       C  0.72161774  0.77091957  0.50122884    -0.53300
C1510       C  0.71661618  0.75231714  0.47557005     0.10800
H1511       H  0.63406623  0.72773302  0.55045647     0.15300
H1512       H  0.71504619  0.69989784  0.46187201     0.01100
H1513       H  0.83159004  0.72675739  0.54019270     0.15600
H1514       H  0.72648488  0.79686765  0.50035289     0.15400
C1515       C  0.81932727  0.63272382  0.97276542     0.87200
C1516       C  0.75821525  0.65561002  0.97728166    -0.53000
C1517       C  0.76111203  0.67462309  0.00264623     0.10100
C1518       C  0.82426488  0.66866781  0.02221477     0.21100
C1519       C  0.87879354  0.65501316  0.97403964    -0.53700
C1520       C  0.88169187  0.67400082  0.99944674     0.10200
C1521       C  0.82243433  0.61355267  0.00256472    -0.53300
C1522       C  0.82606160  0.63185332  0.02868016     0.10800
H1523       H  0.71801778  0.65894173  0.96236331     0.15300
H1524       H  0.82705421  0.68397639  0.04288962     0.01100
H1525       H  0.91347581  0.65728546  0.95520623     0.15600
H1526       H  0.82252672  0.58740626  0.00291258     0.15400
C1527       C  0.98568657  0.74525923  0.97428795     0.87200
C1528       C  0.04706565  0.72293566  0.97654165    -0.53000
C1529       C  0.04765190  0.70226059  0.00091112     0.10100
C1530       C  0.98566995  0.70622016  0.02176522     0.21100
C1531       C  0.92613620  0.72287680  0.97554858    -0.53700
C1532       C  0.92647825  0.70193960  0.99968757     0.10200
C1533       C  0.98298053  0.76240596  0.00542403    -0.53300
C1534       C  0.98193966  0.74243623  0.03039918     0.10800
H1535       H  0.08511663  0.72195603  0.95893448     0.15300
H1536       H  0.98511610  0.68960323  0.04156537     0.01100
H1537       H  0.88792056  0.72253259  0.95801435     0.15600
H1538       H  0.97833739  0.78821021  0.00823568     0.15400
O1539       O  0.89929581  0.98051437  0.72562464    -0.57100
C1540       C  0.96282450  0.89649238  0.79305411     0.75500
O1541       O  0.73826320  0.91728821  0.72624306    -0.58200
C1542       C  0.94323870  0.99483272  0.70995654     0.75500
C1543       C  0.70281580  0.99244353  0.80344513     0.77900
Cd1544     Cd  0.65762425  0.94862843  0.75786490     1.37500
O1545       O  0.91253498  0.91273137  0.78289074    -0.57100
O1546       O  0.64246439  0.98494622  0.80034658    -0.55900
C1547       C  0.69444245  0.89852343  0.71562063     0.77900
O1548       O  0.74438471  0.98043841  0.78434734    -0.58300
O1549       O  0.68897737  0.90689575  0.79126931    -0.56700
O1550       O  0.66902291  0.98274534  0.71502307    -0.56700
O1551       O  0.63515429  0.90303077  0.72499781    -0.55900
O1552       O  0.79746438  0.97919665  0.22282158    -0.57100
C1553       C  0.75734540  0.89592185  0.29638192     0.75500
O1554       O  0.95440827  0.97585884  0.27414968    -0.58200
C1555       C  0.74985945  0.99084448  0.20641238     0.75500
C1556       C  0.01083888  0.89459038  0.20327664     0.77900
Cd1557     Cd  0.72326299  0.94449405  0.25226994     1.37500
O1558       O  0.80471495  0.91214132  0.28510791    -0.57100
O1559       O  0.75256623  0.90710870  0.21156876    -0.55900
C1560       C  0.99703817  0.99304528  0.28779717     0.77900
O1561       O  0.96473487  0.90818660  0.21907577    -0.58300
O1562       O  0.01502101  0.90215389  0.28337144    -0.56700
O1563       O  0.01281422  0.97759490  0.20556280    -0.56700
O1564       O  0.73583340  0.98755769  0.28878222    -0.55900
C1565       C  0.99685504  0.76651554  0.11484398    -0.13600
C1566       C  0.95585009  0.79445519  0.11515652     0.16700
C1567       C  0.91669240  0.80158826  0.08926805     0.03000
C1568       C  0.92179778  0.78218951  0.06332826    -0.12100
C1569       C  0.96821918  0.75634788  0.06147767    -0.02400
C1570       C  0.00397950  0.74762741  0.08822803     0.02300
C1571       C  0.96736935  0.81961909  0.13855404     0.09100
N1572       N  0.87486283  0.82983168  0.08783173     0.65500
H1573       H  0.89184323  0.78886502  0.04359360     0.18400
N1574       N  0.77375190  0.74252270  0.07785735     0.76000
H1575       H  0.75042707  0.77637357  0.12827327     0.09900
C1576       C  0.93130672  0.82247891  0.16610003     0.03600
C1577       C  0.94510264  0.84758773  0.18650277    -0.05100
C1578       C  0.99654896  0.86907790  0.18068593    -0.23500
C1579       C  0.03395787  0.86535027  0.15355890     0.12800
C1580       C  0.01744647  0.84156473  0.13250400    -0.12700
N1581       N  0.88174415  0.79994697  0.17414730     0.64500
H1582       H  0.91666464  0.84970181  0.20744692     0.12400
N1583       N  0.08840596  0.88562796  0.14666271     0.61200
H1584       H  0.04472065  0.83991691  0.11122565     0.08500
O1585       O  0.81664978  0.73503103  0.09793531    -0.40300
O1586       O  0.79204425  0.74384114  0.05034397    -0.39500
O1587       O  0.90021526  0.85627408  0.08053794    -0.39500
O1588       O  0.81340905  0.82636564  0.08365329    -0.37200
O1589       O  0.08119102  0.90686044  0.12617663    -0.38100
O1590       O  0.14650482  0.87642686  0.15421204    -0.34200
O1591       O  0.89683808  0.77770619  0.19280437    -0.35600
O1592       O  0.82123918  0.80793478  0.17057873    -0.39900
C1593       C  0.91995562  0.84955597  0.86416836    -0.13600
C1594       C  0.97313586  0.82696094  0.86485437     0.16700
C1595       C  0.01600620  0.82446551  0.83945400     0.03000
C1596       C  0.00799554  0.84603324  0.81517183    -0.12100
C1597       C  0.95798753  0.87027048  0.81556014    -0.03200
C1598       C  0.91182665  0.87110993  0.83973590     0.02300
C1599       C  0.98205701  0.80629661  0.89223541     0.09100
N1600       N  0.07042303  0.80163647  0.83862400     0.65500
H1601       H  0.04329769  0.84473299  0.79648068     0.18400
N1602       N  0.85927327  0.89487184  0.84097752     0.76000
H1603       H  0.88534807  0.85095358  0.88310536     0.09900
C1604       C  0.99242587  0.81973209  0.92126660     0.03600
C1605       C  0.99495282  0.79993902  0.94711164    -0.05100
C1606       C  0.98620668  0.76636169  0.94520610    -0.23500
C1607       C  0.97939036  0.75287698  0.91543096     0.12800
C1608       C  0.97662740  0.77292606  0.88959935    -0.12700
N1609       N  0.64905501  0.85648116  0.93319736     0.64500
H1610       H  0.00549144  0.81164523  0.96838840     0.12400
N1611       N  0.97534282  0.71890006  0.91062089     0.61200
H1612       H  0.96914570  0.76231444  0.86730280     0.08500
O1613       O  0.86774014  0.92026846  0.85607218    -0.40300
O1614       O  0.80077678  0.88675287  0.83472360    -0.39500
O1615       O  0.72003406  0.77978262  0.82699490    -0.39500
O1616       O  0.12700908  0.81031708  0.84746398    -0.37200
O1617       O  0.02799140  0.70316169  0.90415269    -0.38100
O1618       O  0.92016034  0.70757021  0.90277802    -0.34200
O1619       O  0.59967964  0.87185782  0.94418251    -0.35600
O1620       O  0.70585773  0.86867567  0.93469428    -0.39900
C1621       C  0.79818527  0.52457137  0.12579300    -0.13600
C1622       C  0.84140711  0.54903502  0.13383545     0.16700
C1623       C  0.86772680  0.54940117  0.16377769     0.03000
C1624       C  0.84919771  0.52577689  0.18502919    -0.12100
C1625       C  0.80249734  0.50250563  0.17741734    -0.03200
C1626       C  0.71966494  0.01869472  0.15668586     0.02300
C1627       C  0.85181526  0.57482519  0.11081065     0.09100
N1628       N  0.91131975  0.57401916  0.17344033     0.65500
H1629       H  0.86832151  0.52690075  0.20815115     0.18400
N1630       N  0.67083479  0.99540039  0.14954929     0.76000
H1631       H  0.77710855  0.52414291  0.10298711     0.09900
C1632       C  0.88792206  0.56826350  0.08392517     0.03600
C1633       C  0.88289040  0.58917509  0.05906561    -0.05100
C1634       C  0.83866544  0.61584906  0.05893428    -0.23500
C1635       C  0.80458718  0.62357343  0.08638568     0.12800
C1636       C  0.81236008  0.60326356  0.11213394    -0.12700
N1637       N  0.92596709  0.53908759  0.08017523     0.64500
H1638       H  0.91106031  0.58307463  0.03870156     0.12400
N1639       N  0.75726883  0.64974340  0.08800587     0.61200
H1640       H  0.78273718  0.60820887  0.13233318     0.08500
O1641       O  0.61109255  0.00105269  0.15710134    -0.40300
O1642       O  0.68269431  0.97586283  0.12810155    -0.39500
O1643       O  0.88903493  0.59573768  0.19108190    -0.39500
O1644       O  0.97333483  0.56856970  0.17231329    -0.37200
O1645       O  0.69703180  0.64429916  0.08227716    -0.38100
O1646       O  0.77064702  0.67351938  0.10460629    -0.34200
O1647       O  0.89733326  0.51486714  0.06943603    -0.35600
O1648       O  0.98788107  0.54114520  0.07649347    -0.39900
C1649       C  0.76356234  0.52520427  0.87256419    -0.13600
C1650       C  0.81040723  0.54850975  0.86590350     0.16700
C1651       C  0.84195339  0.54809266  0.83707949     0.03000
C1652       C  0.82349111  0.52528577  0.81505369    -0.12100
C1653       C  0.77292072  0.50344065  0.82120773    -0.03200
C1654       C  0.74421503  0.50303927  0.85062444     0.02300
C1655       C  0.82017229  0.57376453  0.88927220     0.09100
N1656       N  0.89017210  0.57139396  0.82924186     0.65500
H1657       H  0.84588222  0.52592497  0.79256787     0.18400
N1658       N  0.94069387  0.99303509  0.85639798     0.76000
H1659       H  0.06920360  0.52884240  0.89717952     0.09900
C1660       C  0.76884658  0.59647869  0.89505487     0.03600
C1661       C  0.76908253  0.61533035  0.92150366    -0.05100
C1662       C  0.82054409  0.61186447  0.94347447    -0.23500
C1663       C  0.87370151  0.58957037  0.93697331     0.12800
C1664       C  0.87292664  0.57078335  0.91015146    -0.12700
N1665       N  0.71236297  0.59963470  0.87536538     0.64500
H1666       H  0.72953503  0.63099713  0.92364494     0.12400
N1667       N  0.92858701  0.58500632  0.95747753     0.61200
H1668       H  0.91196674  0.55291390  0.90634123     0.08500
O1669       O  0.03102562  0.45818313  0.87920927    -0.40300
O1670       O  0.88439097  0.00531035  0.84981396    -0.39500
O1671       O  0.95089738  0.56288128  0.82884621    -0.39500
O1672       O  0.87160356  0.59633148  0.81468876    -0.37200
O1673       O  0.93027926  0.56050557  0.97461731    -0.38100
O1674       O  0.98217170  0.59907854  0.95188565    -0.34200
O1675       O  0.02188159  0.60370959  0.86918962    -0.35600
O1676       O  0.10289878  0.63006930  0.84896188    -0.39900
C1677       C  0.68069227  0.82665598  0.66214206    -0.13600
C1678       C  0.73266482  0.83213973  0.64165358     0.16700
C1679       C  0.77558770  0.85790412  0.64722610     0.03000
C1680       C  0.76442518  0.87817206  0.67245153    -0.12100
C1681       C  0.71049770  0.87358859  0.69221973    -0.03200
C1682       C  0.66943637  0.84683820  0.68729871     0.02300
C1683       C  0.73556072  0.81273348  0.61319634     0.09100
N1684       N  0.82799221  0.86522742  0.62654402     0.65500
H1685       H  0.79641655  0.89852730  0.67571687     0.18400
N1686       N  0.97119775  0.83614191  0.70422564     0.76000
H1687       H  0.64778337  0.80678807  0.65826595     0.09900
C1688       C  0.78220148  0.78736838  0.60890946     0.03600
C1689       C  0.77894185  0.76805945  0.58279773    -0.05100
C1690       C  0.72972155  0.77319775  0.56003933    -0.23500
C1691       C  0.68099385  0.79795827  0.56545819     0.12800
C1692       C  0.68528432  0.81755266  0.59139250    -0.12700
N1693       N  0.83107925  0.77946455  0.63160118     0.64500
H1694       H  0.81437146  0.74820567  0.58181803     0.12400
N1695       N  0.62583005  0.80348118  0.54530818     0.61200
H1696       H  0.64784420  0.83636725  0.59486201     0.08500
O1697       O  0.99669492  0.81989382  0.72585497    -0.40300
O1698       O  0.90934880  0.83486128  0.69947261    -0.39500
O1699       O  0.82198896  0.88998923  0.60989157    -0.39500
O1700       O  0.88539315  0.85330675  0.63138959    -0.37200
O1701       O  0.62359089  0.82915173  0.52983510    -0.38100
O1702       O  0.57214048  0.78939737  0.55065246    -0.34200
O1703       O  0.81832334  0.75800077  0.65103568    -0.35600
O1704       O  0.89109137  0.78569763  0.62629865    -0.39900
C1705       C  0.81207017  0.84045409  0.36236228    -0.13600
C1706       C  0.76204773  0.81737715  0.36082452     0.16700
C1707       C  0.71657904  0.81878710  0.33639476     0.03000
C1708       C  0.71960641  0.84359190  0.31497539    -0.12100
C1709       C  0.76658063  0.86793698  0.31732660    -0.03200
C1710       C  0.81481325  0.86571067  0.34082597     0.02300
C1711       C  0.74735989  0.79790511  0.38830751     0.09100
N1712       N  0.98862534  0.79177738  0.32717712     0.65500
H1713       H  0.00320581  0.84139827  0.29103009     0.18400
N1714       N  0.86283472  0.89013131  0.34489356     0.76000
H1715       H  0.84627360  0.84013767  0.38154070     0.09900
C1716       C  0.78144080  0.76883331  0.39585788     0.03600
C1717       C  0.76850429  0.75361508  0.42389868    -0.05100
C1718       C  0.72160723  0.76669536  0.44446928    -0.23500
C1719       C  0.68606427  0.79525547  0.43612536     0.12800
C1720       C  0.69945901  0.81045803  0.40841385    -0.12700
N1721       N  0.82894642  0.75447522  0.37545132     0.64500
H1722       H  0.79703397  0.73216448  0.43019340     0.12400
N1723       N  0.63661487  0.80964283  0.45548650     0.61200
H1724       H  0.67283481  0.83274564  0.40274115     0.08500
O1725       O  0.92243419  0.88422825  0.33732279    -0.40300
O1726       O  0.85020411  0.91302684  0.36308010    -0.39500
O1727       O  0.92903425  0.79816749  0.33446868    -0.39500
O1728       O  0.00105466  0.76840386  0.30953081    -0.37200
O1729       O  0.57637436  0.80326456  0.45082452    -0.38100
O1730       O  0.96693320  0.83142830  0.46235641    -0.34200
O1731       O  0.88864095  0.75054337  0.38399148    -0.35600
O1732       O  0.80847063  0.73899933  0.35265691    -0.39900
C1733       C  0.89330131  0.60627864  0.60883195    -0.13600
C1734       C  0.89745482  0.57283585  0.60481578     0.16700
C1735       C  0.88975384  0.56029577  0.57514442     0.03000
C1736       C  0.88376404  0.58123396  0.55013787    -0.12100
C1737       C  0.88591038  0.61500329  0.55350661    -0.03200
C1738       C  0.88669546  0.62733422  0.58383788     0.02300
C1739       C  0.91284620  0.55206271  0.63178262     0.09100
N1740       N  0.88520038  0.52643343  0.56978540     0.65500
H1741       H  0.87624837  0.57018703  0.52823559     0.18400
N1742       N  0.88138740  0.66115251  0.58997259     0.76000
H1743       H  0.57150035  0.61689314  0.63225931     0.09900
C1744       C  0.63515611  0.53200209  0.63045016     0.03600
C1745       C  0.65036065  0.51268475  0.65569821    -0.05100
C1746       C  0.94554182  0.51589399  0.68495588    -0.23500
C1747       C  0.88713018  0.53551164  0.68408190     0.12800
C1748       C  0.87077779  0.55300421  0.65741976    -0.12700
N1749       N  0.68172573  0.53259802  0.60584002     0.64500
H1750       H  0.69401382  0.49682294  0.65455861     0.12400
N1751       N  0.84695992  0.54005579  0.71064997     0.61200
H1752       H  0.82589878  0.56805755  0.65700681     0.08500
O1753       O  0.60085798  0.67689424  0.60075016    -0.40300
O1754       O  0.82497144  0.67324720  0.59658071    -0.39500
O1755       O  0.82821414  0.51437579  0.56927398    -0.39500
O1756       O  0.93174011  0.51213379  0.55552973    -0.37200
O1757       O  0.82534096  0.06131633  0.72629576    -0.38100
O1758       O  0.79130522  0.52680516  0.71209513    -0.34200
O1759       O  0.72573279  0.55376810  0.60606313    -0.35600
O1760       O  0.69207934  0.50724693  0.59052603    -0.39900
C1761       C  0.89633949  0.61586281  0.38611813    -0.13600
C1762       C  0.94932735  0.59303127  0.38621093     0.16700
C1763       C  0.98965024  0.59040949  0.41257826     0.03000
C1764       C  0.97558368  0.60953169  0.43807557    -0.12100
C1765       C  0.91989160  0.63048346  0.43903329    -0.03200
C1766       C  0.88113951  0.63442029  0.41229463     0.02300
C1767       C  0.95744683  0.56995599  0.36025362     0.09100
N1768       N  0.04228494  0.56685928  0.41519213     0.65500
H1769       H  0.00615469  0.60622276  0.45833665     0.18400
N1770       N  0.82499738  0.65610635  0.41150933     0.76000
H1771       H  0.86484487  0.61827786  0.36608609     0.09900
C1772       C  0.91520399  0.54350829  0.35764793     0.03600
C1773       C  0.92597525  0.52014961  0.33497928    -0.05100
C1774       C  0.97866065  0.52277400  0.31434647    -0.23500
C1775       C  0.69000107  0.55481675  0.31593948     0.12800
C1776       C  0.00725282  0.57386579  0.33817546    -0.12700
N1777       N  0.86008315  0.54044361  0.37768471     0.64500
H1778       H  0.89436004  0.49937936  0.33417117     0.12400
N1779       N  0.74256387  0.56090091  0.29486863     0.61200
H1780       H  0.71051583  0.59664935  0.34336457     0.08500
O1781       O  0.83130871  0.68314669  0.39881999    -0.40300
O1782       O  0.76745589  0.64509798  0.41467888    -0.39500
O1783       O  0.75810884  0.56789648  0.42600323    -0.39500
O1784       O  0.02772950  0.53813413  0.42126462    -0.37200
O1785       O  0.68822907  0.06406806  0.26324030    -0.38100
O1786       O  0.80179669  0.55317627  0.30182531    -0.34200
O1787       O  0.80409482  0.55190658  0.36962129    -0.35600
O1788       O  0.86944622  0.53152480  0.40494216    -0.39900
loop_ 
_geom_bond_atom_site_label_1 
_geom_bond_atom_site_label_2 
_geom_bond_distance 
_geom_bond_site_symmetry_2 
_ccdc_geom_bond_type 
C1            C2   1.538       .  S
C1            C7   1.540       .  S
C1            C5   1.530       .  S
C1          C247   1.547       .  S
C2            H9   1.085       .  S
C2            C3   1.366       .  D
C3            C4   1.550       .  S
C3          C611   1.495       .  S
C4            C8   1.550       .  S
C4            C6   1.551       .  S
C4           H10   1.111       .  S
C5           H11   1.087       .  S
C5            C6   1.371       .  D
C6           C18   1.487       .  S
C7           H12   1.082       .  S
C7            C8   1.368       .  D
C8          C275   1.496       .  S
C13          C14   1.540       .  S
C13          C19   1.531       .  S
C13          C17   1.542       .  S
C13         C200   1.545       .  S
C14          H21   1.086   1_455  S
C14          C15   1.372   1_455  D
C15          C16   1.542   1_655  S
C15        C1195   1.494       .  S
C16          C20   1.549       .  S
C16          C18   1.548       .  S
C16          H22   1.111       .  S
C17          H23   1.082       .  S
C17          C18   1.360       .  D
C19          H24   1.084       .  S
C19          C20   1.366       .  D
C20         C228   1.480       .  S
C25          C26   1.549       .  S
C25          C31   1.525   1_556  S
C25          C29   1.533       .  S
C25         C172   1.542       .  S
C26          H33   1.084   1_455  S
C26          C27   1.363   1_556  D
C27          C28   1.544       .  S
C27        C1231   1.486   1_455  S
C28          C32   1.544       .  S
C28          C30   1.543       .  S
C28          H34   1.104       .  S
C29          H35   1.087       .  S
C29          C30   1.367   1_556  D
C30          C42   1.484       .  S
C31          H36   1.085       .  S
C31          C32   1.368       .  D
C32         C144   1.483       .  S
C37          C38   1.535       .  S
C37          C43   1.541   1_556  S
C37          C41   1.530       .  S
C37         C116   1.535       .  S
C38          H45   1.085       .  S
C38          C39   1.366   1_556  D
C39          C40   1.542       .  S
C39         C623   1.482       .  S
C40          C44   1.550       .  S
C40          C42   1.547       .  S
C40          H46   1.110       .  S
C41          H47   1.087       .  S
C41          C42   1.365   1_556  D
C43          H48   1.081       .  S
C43          C44   1.362       .  D
C44          C79   1.487       .  S
O49          C52   1.272       .  A
O49        Cd650   2.523       .  S
C50          O55   1.275       .  A
C50         O655   1.266       .  A
C50         C107   1.479       .  S
O51          C57   1.274       .  A
O51         Cd54   2.485       .  S
C52         O656   1.265       .  A
C52         C554   1.482       .  S
C53          O58   1.273       .  A
C53          O56   1.264       .  A
C53         C461   1.483       .  S
Cd54         O61   2.459   1_455  S
Cd54         O60   2.392       .  S
Cd54         O59   2.333       .  S
Cd54         O58   2.517       .  S
Cd54         O56   2.427       .  S
Cd54       O1241   2.509   1_455  S
Cd54       O1247   2.476   1_455  S
O55        Cd650   2.485       .  S
C57          O61   1.267   1_455  A
C57         C191   1.485       .  S
O59        C1242   1.266   1_455  A
O60        C1244   1.265   1_455  A
O62          C65   1.276       .  A
O62         Cd67   2.494       .  S
C63          O68   1.276       .  A
C63        O1264   1.268       .  A
C63         C219   1.484       .  S
O64          C70   1.273       .  A
O64        Cd663   2.509       .  S
C65        O1265   1.266       .  A
C65         C433   1.479       .  S
C66          O71   1.274       .  A
C66         O665   1.269       .  A
C66          C88   1.474       .  S
Cd67         O74   2.418       .  S
Cd67         O68   2.530       .  S
Cd67         O69   2.419       .  S
Cd67       O1256   2.495   1_455  S
Cd67       O1265   2.407       .  S
Cd67       O1264   2.386       .  S
Cd67       O1263   2.489   1_455  S
O69        C1258   1.269   1_455  A
C70         O670   1.265       .  A
C70         C582   1.483       .  S
O71        Cd663   2.484       .  S
O72         C659   1.268       .  A
O72        Cd663   2.414       .  S
O73         C661   1.265       .  A
O73        Cd663   2.418       .  S
O74        C1262   1.267   1_455  A
C75          C76   1.402       .  A
C75          C80   1.401       .  A
C75         H681   1.081       .  S
C76          C81   1.493       .  S
C76          C77   1.417       .  A
C77          C78   1.406       .  A
C77          N82   1.440       .  S
C78          C79   1.403       .  A
C78          H83   1.079       .  S
C79          C80   1.411       .  A
C80         N680   1.432       .  S
C81          C86   1.414       .  A
C81          C90   1.407       .  A
N82          O97   1.263       .  A
N82          O98   1.263       .  A
N84        C1272   1.436   1_455  S
N84          O95   1.263       .  A
N84          O96   1.261       .  A
H85        C1267   1.080   1_455  S
C86          C87   1.398       .  A
C86          N91   1.429       .  S
C87          C88   1.400       .  A
C87          H92   1.084       .  S
C88          C89   1.409       .  A
C89          C90   1.401       .  A
C89          N93   1.428       .  S
C90          H94   1.083       .  S
N91         O101   1.262       .  A
N91         O102   1.262       .  A
N93          O99   1.261       .  A
N93         O100   1.261       .  A
C103        C104   1.403       .  A
C103        C108   1.399       .  A
C103        H113   1.081       .  S
C104        C109   1.487       .  S
C104        C105   1.414       .  A
C105        C106   1.393       .  A
C105        N110   1.430       .  S
C106        C107   1.404       .  A
C106        H111   1.084       .  S
C107        C108   1.410       .  A
C108        N112   1.425       .  S
C109        C114   1.413       .  A
C109        C118   1.400       .  A
N110        O126   1.261       .  A
N110        O721   1.262       .  A
N112        O123   1.261       .  A
N112        O124   1.260       .  A
C114        C115   1.396       .  A
C114        N715   1.430       .  S
C115        C116   1.408       .  A
C115        H120   1.075       .  S
C116        C117   1.423       .  A
C117        C118   1.399       .  A
C117        N121   1.431       .  S
C118        H122   1.083       .  S
N119       C1306   1.430       .  S
N119        O129   1.262       .  A
N119        O130   1.262       .  A
N121        O127   1.262       .  A
N121        O128   1.262       .  A
O125       N1302   1.262       .  A
C131        C132   1.397       .  A
C131        C434   1.394       .  A
C131        H141   1.078       .  S
C132        C137   1.478       .  S
C132        C133   1.408       .  A
C133        C134   1.404       .  A
C133        N138   1.427       .  S
C134        C135   1.405       .  A
C134        H139   1.084       .  S
C135        C363   1.477   1_545  S
C135        C434   1.414       .  A
C136        C429   1.393       .  A
C136        C433   1.410       .  A
C136        N140   1.426       .  S
C137        C142   1.404       .  A
C137        C146   1.406       .  A
N138        O153   1.262       .  A
N138        O154   1.262       .  A
N140        O151   1.262   1_455  A
N140        O152   1.262       .  A
C142        C143   1.393       .  A
C142        N147   1.426       .  S
C143        C144   1.402       .  A
C143        H148   1.085       .  S
C144        C145   1.412       .  A
C145        C146   1.406       .  A
C145        N149   1.428   1_455  S
C146        H150   1.084       .  S
N147        O157   1.262       .  A
N147        O158   1.260       .  A
N149        O155   1.261       .  A
N149        O156   1.261       .  A
C159        C160   1.398       .  A
C159        C164   1.394   1_455  A
C159       H1361   1.085   1_455  S
C160        C165   1.483       .  S
C160        C161   1.413       .  A
C161        C162   1.402       .  A
C161        N166   1.425       .  S
C162        C163   1.401       .  A
C162        H167   1.084       .  S
C163        C351   1.479   1_545  S
C163        C164   1.414   1_455  A
C164       N1658   1.426   1_545  S
C165        C170   1.406       .  A
C165        C174   1.398       .  A
N166        O181   1.262       .  A
N166        O182   1.262       .  A
N168       C1058   1.430       .  S
N168        O180   1.262       .  A
N168        O477   1.262       .  A
H169        C755   1.084       .  S
C170        C171   1.390       .  A
C170        N175   1.425   1_455  S
C171        C172   1.405       .  A
C171        H176   1.081   1_455  S
C172        C173   1.428       .  A
C173        C174   1.408       .  A
C173        N177   1.430       .  S
C174        H178   1.085       .  S
N175       O1377   1.261       .  A
N175       O1378   1.262       .  A
N177        O183   1.262       .  A
N177        O184   1.262       .  A
O179        N466   1.262       .  A
O185        N771   1.261       .  A
O186        N771   1.262       .  A
C187        C188   1.400       .  A
C187        C192   1.401       .  A
C187        H197   1.083       .  S
C188        C193   1.482       .  S
C188        C189   1.408       .  A
C189        C190   1.402       .  A
C189        N194   1.427       .  S
C190        C191   1.404       .  A
C190        H195   1.084       .  S
C191        C192   1.416       .  A
C192       N1388   1.429   1_455  S
C193        C198   1.404       .  A
C193        C202   1.395       .  A
N194        O209   1.262       .  A
N194        O210   1.261       .  A
N196        C788   1.429       .  S
N196        O207   1.262       .  A
N196        O208   1.262       .  A
C198        C199   1.400       .  A
C198        N203   1.428       .  S
C199        C200   1.415       .  A
C199        H204   1.077       .  S
C200        C201   1.423       .  A
C201        C202   1.402       .  A
C201        N205   1.426   1_455  S
C202        H206   1.082   1_455  S
N203        O213   1.262       .  A
N203        O214   1.261       .  A
N205        O211   1.262       .  A
N205        O212   1.262       .  A
C215        C216   1.407       .  A
C215        C220   1.410       .  A
C215        H225   1.084       .  S
C216        C221   1.485       .  S
C216        C217   1.409       .  A
C217        C218   1.394       .  A
C217       N1414   1.427   1_455  S
C218        C219   1.402       .  A
C218       H1415   1.085   1_455  S
C219        C220   1.413       .  A
C220        N224   1.428       .  S
C221        C226   1.415       .  A
C221        C230   1.399       .  A
N222        C813   1.426       .  S
N222        O237   1.261       .  A
N222        O238   1.262       .  A
H223        C814   1.084       .  S
N224        O235   1.261       .  A
N224        O236   1.262       .  A
C226        C227   1.404       .  A
C226        N231   1.427       .  S
C227        C228   1.399       .  A
C227        H232   1.083       .  S
C228        C229   1.412       .  A
C229        C230   1.394       .  A
C229        N233   1.427   1_455  S
C230        H234   1.084   1_455  S
N231        O241   1.262       .  A
N231        O242   1.262       .  A
N233        O239   1.261       .  A
N233       O1432   1.261       .  A
O240        N829   1.261       .  A
C243        C244   1.399       .  A
C243        C248   1.404       .  A
C243        H849   1.084       .  S
C244        C249   1.488       .  S
C244        C245   1.410       .  A
C245        C246   1.401       .  A
C245        N250   1.430       .  S
C246        C247   1.412       .  A
C246        H251   1.077       .  S
C247        C248   1.425       .  A
C248        N252   1.430       .  S
C249        C258   1.406       .  A
C249        C850   1.408       .  A
N250        O265   1.261       .  A
N250        O266   1.261       .  A
N252        O264   1.262       .  A
N252        O859   1.262       .  A
H253       C1435   1.084       .  S
C254        C255   1.394       .  A
C254       C1441   1.409       .  A
C254        N259   1.429   1_655  S
C255       C1448   1.403       .  A
C255        H260   1.084   1_655  S
C256        C350   1.483   1_545  S
C256        C257   1.411       .  A
C256        C851   1.401       .  A
C257        C258   1.408       .  A
C257        N261   1.426       .  S
C258        H262   1.084       .  S
N259        O269   1.262       .  A
N259        O270   1.261       .  A
N261        O268   1.260       .  A
N261        O565   1.262       .  A
O263       N1444   1.262       .  A
O267        N559   1.262       .  A
C271        C272   1.407       .  A
C271        C276   1.411       .  A
C271        H281   1.084       .  S
C272        C277   1.494       .  S
C272        C273   1.409       .  A
C273        C274   1.399       .  A
C273        N278   1.426       .  S
C274        C275   1.403       .  A
C274        H279   1.084       .  S
C275        C276   1.413       .  A
C276        N280   1.427       .  S
C277        C282   1.410       .  A
C277        C286   1.404       .  A
N278        O294   1.262       .  A
N278        O889   1.261       .  A
N280        O291   1.261       .  A
N280        O292   1.262       .  A
C282        C283   1.406       .  A
C282        N287   1.425       .  S
C283        C284   1.402       .  A
C283        H288   1.084   1_545  S
C284        C368   1.488   1_545  S
C284        C881   1.415       .  A
C285       C1476   1.416   1_455  A
C285       C1478   1.407       .  A
C285        N289   1.431       .  S
C286        C881   1.408       .  A
C286        H886   1.084       .  S
N287        O297   1.260       .  A
N287        O298   1.262       .  A
N289        O296   1.261       .  A
N289        O593   1.262       .  A
H290       C1478   1.084       .  S
O293       N1470   1.261       .  A
O295        N587   1.262       .  A
C299        C300   1.535       .  S
C299        C305   1.538       .  S
C299        C303   1.527       .  S
C299        C545   1.539       .  S
C300        H307   1.085       .  S
C300        C301   1.360       .  D
C301        C302   1.547       .  S
C301        C909   1.486       .  S
C302        C306   1.554       .  S
C302        C304   1.552       .  S
C302        H308   1.110       .  S
C303        H309   1.087       .  S
C303        C304   1.369       .  D
C304        C316   1.484       .  S
C305        H310   1.080       .  S
C305        C306   1.371       .  D
C306        C573   1.503       .  S
C311        C312   1.537       .  S
C311        C317   1.530       .  S
C311        C315   1.543       .  S
C311        C498   1.541       .  S
C312        H319   1.087   1_455  S
C312        C313   1.367   1_455  D
C313        C314   1.543   1_655  S
C313       C1493   1.490       .  S
C314        C318   1.553       .  S
C314        C316   1.546       .  S
C314        H320   1.111       .  S
C315        H321   1.080       .  S
C315        C316   1.362       .  D
C317        H322   1.085       .  S
C317        C318   1.368       .  D
C318        C526   1.489       .  S
C323        C324   1.548       .  S
C323        C329   1.532   1_556  S
C323        C327   1.530       .  S
C323        C470   1.544       .  S
C324        H331   1.081       .  S
C324        C325   1.363   1_556  D
C325        C326   1.538       .  S
C325       C1529   1.487       .  S
C326        C330   1.548       .  S
C326        C328   1.545       .  S
C326        H332   1.109       .  S
C327        H333   1.087       .  S
C327        C328   1.367   1_556  D
C328        C340   1.484       .  S
C329        H334   1.085       .  S
C329        C330   1.369       .  D
C330        C442   1.482       .  S
C335        C336   1.534       .  S
C335        C341   1.541   1_556  S
C335        C339   1.530       .  S
C335        C414   1.536       .  S
C336        H343   1.086       .  S
C336        C337   1.367   1_556  D
C337        C338   1.545       .  S
C337        C921   1.485       .  S
C338        C342   1.545       .  S
C338        C340   1.547       .  S
C338        H344   1.103       .  S
C339        H345   1.086       .  S
C339        C340   1.362   1_556  D
C341        H346   1.080       .  S
C341        C342   1.365       .  D
C342        C377   1.487       .  S
O347        C350   1.275       .  A
O347       Cd948   2.508       .  S
C348        O953   1.269       .  A
C348        O353   1.277       .  A
C348        C405   1.476       .  S
O349        C355   1.276       .  A
O349       Cd352   2.462   1_455  S
C350        O954   1.266       .  A
C351        O356   1.277       .  A
C351        O354   1.268   1_455  A
Cd352      O1539   2.485       .  S
Cd352       O359   2.423       .  S
Cd352       O358   2.364   1_655  S
Cd352       O357   2.335   1_655  S
Cd352      O1545   2.461       .  S
Cd352       O356   2.462   1_655  S
Cd352       O354   2.399       .  S
O353       Cd948   2.480       .  S
C355        O359   1.271   1_455  A
C355        C489   1.479       .  S
O357       C1540   1.270   1_455  A
O358       C1542   1.267   1_455  A
O360        C363   1.279       .  A
O360       Cd365   2.453       .  S
C361       O1562   1.269       .  A
C361        O366   1.278       .  A
C361        C517   1.483       .  S
O362        C368   1.277       .  A
O362       Cd961   2.504       .  S
C363       O1563   1.270       .  A
C364        O369   1.277       .  A
C364        O963   1.272       .  A
C364        C386   1.484       .  S
Cd365      O1554   2.491   1_455  S
Cd365       O372   2.415       .  S
Cd365      O1563   2.394       .  S
Cd365      O1562   2.368       .  S
Cd365       O366   2.520       .  S
Cd365      O1561   2.457   1_455  S
Cd365       O367   2.429       .  S
O367       C1556   1.271       .  A
C368        O968   1.269       .  A
O369       Cd961   2.462       .  S
O370        C957   1.269       .  A
O370       Cd961   2.374       .  S
O371        C959   1.271       .  A
O371       Cd961   2.415       .  S
O372       C1560   1.269   1_455  A
C373        C374   1.405       .  A
C373        C378   1.408       .  A
C373        H979   1.083       .  S
C374        C379   1.490       .  S
C374        C375   1.407       .  A
C375        C376   1.399       .  A
C375        N380   1.424       .  S
C376        C377   1.402       .  A
C376        H381   1.084       .  S
C377        C378   1.413       .  A
C378        N978   1.431       .  S
C379        C384   1.411       .  A
C379        C388   1.403       .  A
N380        O395   1.262       .  A
N380        O396   1.260       .  A
N382       C1570   1.426       .  S
N382        O393   1.261       .  A
N382        O394   1.261       .  A
H383       C1565   1.084   1_455  S
C384        C385   1.406       .  A
C384        N389   1.427       .  S
C385        C386   1.405       .  A
C385        H390   1.084       .  S
C386        C387   1.413       .  A
C387        C388   1.400       .  A
C387        N391   1.429       .  S
C388        H392   1.083       .  S
N389        O399   1.262       .  A
N389        O400   1.261       .  A
N391        O397   1.261       .  A
N391        O398   1.262       .  A
C401        C402   1.404       .  A
C401        C406   1.403       .  A
C401        H411   1.084       .  S
C402        C407   1.481       .  S
C402        C403   1.410       .  A
C403        C404   1.392       .  A
C403        N408   1.429       .  S
C404        C405   1.403       .  A
C404        H409   1.084       .  S
C405        C406   1.412       .  A
C406        N410   1.428       .  S
C407        C412   1.408       .  A
C407        C416   1.397       .  A
N408       O1019   1.262       .  A
N408        O424   1.261       .  A
N410        O421   1.261       .  A
N410        O422   1.262       .  A
C412        C413   1.397       .  A
C412       N1013   1.429       .  S
C413        C414   1.410       .  A
C413        H418   1.074       .  S
C414        C415   1.425       .  A
C415        C416   1.398       .  A
C415        N419   1.431       .  S
C416        H420   1.083       .  S
N417       C1604   1.430   1_455  S
N417        O427   1.262   1_455  A
N417        O428   1.262       .  A
N419        O425   1.262       .  A
N419        O426   1.262       .  A
O423       N1600   1.262       .  A
C429        C430   1.395       .  A
C429        H439   1.077       .  S
C430        C435   1.487       .  S
C430        C431   1.412       .  A
C431        C432   1.408       .  A
C431        N436   1.426       .  S
C432        C433   1.404       .  A
C432        H437   1.084       .  S
C434        N438   1.430   1_445  S
C435        C440   1.406       .  A
C435        C444   1.409       .  A
N436        O451   1.262       .  A
N436        O452   1.261       .  A
N438        O449   1.262   1_565  A
N438        O450   1.262   1_655  A
C440        C441   1.396       .  A
C440        N445   1.425       .  S
C441        C442   1.399       .  A
C441        H446   1.084       .  S
C442        C443   1.417       .  A
C443        C444   1.412       .  A
C443        N447   1.440       .  S
C444        H448   1.084       .  S
N445        O455   1.262       .  A
N445        O456   1.260       .  A
N447        O453   1.262       .  A
N447        O454   1.263   1_455  A
C457        C458   1.398       .  A
C457        C462   1.396       .  A
C457       H1659   1.085       .  S
C458        C463   1.481       .  S
C458        C459   1.412       .  A
C459        C460   1.407       .  A
C459        N464   1.427       .  S
C460        C461   1.405       .  A
C460        H465   1.084       .  S
C461        C462   1.415       .  A
C462       N1360   1.429       .  S
C463        C468   1.405       .  A
C463        C472   1.400       .  A
N464        O479   1.261       .  A
N464        O480   1.262       .  A
N466        C760   1.428   1_565  S
N466        O478   1.261       .  A
H467       C1053   1.084       .  S
C468        C469   1.395       .  A
C468        N473   1.428       .  S
C469        C470   1.411       .  A
C469        H474   1.075       .  S
C470        C471   1.424       .  A
C471        C472   1.408       .  A
C471        N475   1.429       .  S
C472        H476   1.084       .  S
N473       O1675   1.261       .  A
N473       O1676   1.262       .  A
N475        O481   1.262       .  A
N475        O482   1.262       .  A
O483       N1069   1.262       .  A
O484       N1069   1.261       .  A
C485        C486   1.399       .  A
C485        C490   1.398       .  A
C485        H495   1.083       .  S
C486        C491   1.477       .  S
C486        C487   1.409       .  A
C487        C488   1.403       .  A
C487        N492   1.428       .  S
C488        C489   1.403       .  A
C488        H493   1.084       .  S
C489        C490   1.413       .  A
C490       N1686   1.429   1_455  S
C491        C496   1.403       .  A
C491        C500   1.396       .  A
N492        O507   1.262       .  A
N492        O508   1.262       .  A
N494       C1086   1.428       .  S
N494        O505   1.262       .  A
N494        O506   1.262       .  A
C496        C497   1.400       .  A
C496        N501   1.428       .  S
C497        C498   1.415       .  A
C497        H502   1.074       .  S
C498        C499   1.422       .  A
C499        C500   1.400       .  A
C499        N503   1.428   1_455  S
C500        H504   1.084   1_455  S
N501        O511   1.262       .  A
N501        O512   1.262       .  A
N503        O509   1.261       .  A
N503        O510   1.262       .  A
C513        C514   1.406       .  A
C513        C518   1.408       .  A
C513        H523   1.084       .  S
C514        C519   1.480       .  S
C514        C515   1.405       .  A
C515        C516   1.395       .  A
C515       N1712   1.428   1_455  S
C516        C517   1.405       .  A
C516       H1713   1.084       .  S
C517        C518   1.413       .  A
C518        N522   1.428       .  S
C519        C524   1.409       .  A
C519        C528   1.396       .  A
N520       C1111   1.427       .  S
N520        O535   1.261       .  A
N520        O536   1.262       .  A
H521       C1112   1.084       .  S
N522        O533   1.262       .  A
N522        O534   1.262       .  A
C524        C525   1.406       .  A
C524        N529   1.426       .  S
C525        C526   1.403       .  A
C525        H530   1.080       .  S
C526        C527   1.415       .  A
C527        C528   1.396       .  A
C527        N531   1.427   1_455  S
C528        H532   1.085   1_455  S
N529        O539   1.261       .  A
N529        O540   1.262       .  A
N531        O537   1.262       .  A
N531       O1730   1.261       .  A
O538       N1127   1.261       .  A
C541        C542   1.399       .  A
C541        C546   1.402       .  A
C541       H1147   1.084       .  S
C542        C547   1.485       .  S
C542        C543   1.411       .  A
C543        C544   1.398       .  A
C543        N548   1.430       .  S
C544        C545   1.408       .  A
C544        H549   1.077       .  S
C545        C546   1.425       .  A
C546        N550   1.431       .  S
C547       C1148   1.407       .  A
C547        C556   1.406       .  A
N548        O563   1.259       .  A
N548        O564   1.260       .  A
N550       O1157   1.262       .  A
N550        O562   1.262       .  A
H551       C1733   1.084       .  S
C552       C1739   1.408       .  A
C552        C553   1.394       .  A
C552        N557   1.424   1_655  S
C553       C1746   1.402       .  A
C553        H558   1.084   1_655  S
C554       C1149   1.401       .  A
C554        C555   1.412       .  A
C555        C556   1.408       .  A
C555        N559   1.427       .  S
C556        H560   1.084       .  S
N557        O567   1.262       .  A
N557        O568   1.261       .  A
N559        O566   1.260       .  A
O561       N1742   1.262       .  A
C569        C570   1.406       .  A
C569        C574   1.413       .  A
C569        H579   1.084       .  S
C570        C575   1.493       .  S
C570        C571   1.409       .  A
C571        C572   1.397       .  A
C571        N576   1.427       .  S
C572        C573   1.404       .  A
C572        H577   1.084       .  S
C573        C574   1.414       .  A
C574        N578   1.424       .  S
C575        C580   1.408       .  A
C575        C584   1.403       .  A
N576       O1187   1.261       .  A
N576        O592   1.262       .  A
N578        O589   1.261       .  A
N578        O590   1.262       .  A
C580        C581   1.403       .  A
C580        N585   1.420       .  S
C581        C582   1.399       .  A
C581        H586   1.084       .  S
C582       C1179   1.413       .  A
C583       C1774   1.413   1_455  A
C583       C1776   1.410       .  A
C583        N587   1.432       .  S
C584       C1179   1.408       .  A
C584       H1184   1.083       .  S
N585        O595   1.259       .  A
N585        O596   1.261       .  A
N587        O594   1.261       .  A
H588       C1776   1.084       .  S
O591       N1768   1.262       .  A
C597        C598   1.538       .  S
C597        C603   1.537       .  S
C597        C601   1.523       .  S
C597        C843   1.539       .  S
C598        H605   1.084       .  S
C598        C599   1.366       .  D
C599        C600   1.550       .  S
C599       C1207   1.492       .  S
C600        C604   1.550       .  S
C600        C602   1.552       .  S
C600        H606   1.110       .  S
C601        H607   1.087       .  S
C601        C602   1.368       .  D
C602        C614   1.480       .  S
C603        H608   1.083       .  S
C603        C604   1.367       .  D
C604        C871   1.497       .  S
C609        C610   1.540       .  S
C609        C615   1.531       .  S
C609        C613   1.543       .  S
C609        C796   1.544       .  S
C610        H617   1.086       .  S
C610        C611   1.371       .  D
C611        C612   1.544       .  S
C612        C616   1.551       .  S
C612        C614   1.542       .  S
C612        H618   1.111       .  S
C613        H619   1.080       .  S
C613        C614   1.362       .  D
C615        H620   1.085       .  S
C615        C616   1.367       .  D
C616        C824   1.485       .  S
C621        C622   1.547       .  S
C621        C627   1.528   1_556  S
C621        C625   1.533       .  S
C621        C768   1.540       .  S
C622        H629   1.071       .  S
C622        C623   1.364   1_556  D
C623        C624   1.542       .  S
C624        C628   1.543       .  S
C624        C626   1.541       .  S
C624        H630   1.103       .  S
C625        H631   1.086       .  S
C625        C626   1.366   1_556  D
C626        C638   1.483       .  S
C627        H632   1.085       .  S
C627        C628   1.369       .  D
C628        C740   1.483       .  S
C633        C634   1.534       .  S
C633        C639   1.544   1_556  S
C633        C637   1.531       .  S
C633        C712   1.538       .  S
C634        H641   1.085       .  S
C634        C635   1.365   1_556  D
C635        C636   1.543       .  S
C635       C1219   1.484       .  S
C636        C640   1.552       .  S
C636        C638   1.546       .  S
C636        H642   1.109       .  S
C637        H643   1.087       .  S
C637        C638   1.364   1_556  D
C639        H644   1.080       .  S
C639        C640   1.365       .  D
C640        C675   1.492       .  S
O645        C648   1.271       .  A
O645      Cd1246   2.516       .  S
C646       O1251   1.266       .  A
C646        O651   1.274       .  A
C646        C703   1.476       .  S
O647        C653   1.274       .  A
O647       Cd650   2.507       .  S
C648       O1252   1.264       .  A
C648       C1150   1.479       .  S
C649        O654   1.274       .  A
C649        O652   1.264       .  A
C649       C1057   1.480       .  S
Cd650       O657   2.446       .  S
Cd650       O656   2.382       .  S
Cd650       O655   2.340       .  S
Cd650       O654   2.512       .  S
Cd650       O652   2.423       .  S
O651      Cd1246   2.487       .  S
C653        O657   1.267       .  A
C653        C787   1.489       .  S
O658        C661   1.275       .  A
O658       Cd663   2.500       .  S
C659        O664   1.275       .  A
C659        C815   1.487       .  S
O660        C666   1.273       .  A
O660      Cd1259   2.508       .  S
C661       C1029   1.482       .  S
C662        O667   1.275       .  A
C662       O1261   1.268       .  A
C662        C684   1.480       .  S
Cd663       O670   2.406       .  S
Cd663       O664   2.531       .  S
Cd663       O665   2.405       .  S
C666       O1266   1.265       .  A
C666       C1178   1.486       .  S
O667      Cd1259   2.493       .  S
O668       C1255   1.266       .  A
O668      Cd1259   2.408       .  S
O669       C1257   1.265       .  A
O669      Cd1259   2.435       .  S
C671        C672   1.404       .  A
C671        C676   1.406       .  A
C671       H1277   1.080       .  S
C672        C677   1.501       .  S
C672        C673   1.420       .  A
C673        C674   1.407       .  A
C673        N678   1.440       .  S
C674        C675   1.403       .  A
C674        H679   1.081       .  S
C675        C676   1.413       .  A
C676       N1276   1.435       .  S
C677        C682   1.417       .  A
C677        C686   1.407       .  A
N678        O693   1.263       .  A
N678        O694   1.262       .  A
N680        O691   1.263       .  A
N680        O692   1.262       .  A
C682        C683   1.403       .  A
C682        N687   1.429       .  S
C683        C684   1.403       .  A
C683        H688   1.084       .  S
C684        C685   1.408       .  A
C685        C686   1.400       .  A
C685        N689   1.426       .  S
C686        H690   1.083       .  S
N687        O697   1.262       .  A
N687        O698   1.262       .  A
N689        O695   1.261       .  A
N689        O696   1.260       .  A
C699        C700   1.406       .  A
C699        C704   1.401       .  A
C699        H709   1.081       .  S
C700        C705   1.492       .  S
C700        C701   1.417       .  A
C701        C702   1.393       .  A
C701        N706   1.430       .  S
C702        C703   1.401       .  A
C702        H707   1.084       .  S
C703        C704   1.408       .  A
C704        N708   1.426       .  S
C705        C710   1.414       .  A
C705        C714   1.399       .  A
N706       O1317   1.262       .  A
N706        O722   1.262       .  A
N708        O719   1.261       .  A
N708        O720   1.260       .  A
C710        C711   1.399       .  A
C710       N1311   1.430       .  S
C711        C712   1.409       .  A
C711        H716   1.074       .  S
C712        C713   1.424       .  A
C713        C714   1.398       .  A
C713        N717   1.431       .  S
C714        H718   1.081       .  S
N715        O725   1.263       .  A
N715        O726   1.262       .  A
N717        O723   1.263       .  A
N717        O724   1.262       .  A
C727        C728   1.397       .  A
C727       C1030   1.395       .  A
C727        H737   1.081       .  S
C728        C733   1.483       .  S
C728        C729   1.411       .  A
C729        C730   1.408       .  A
C729        N734   1.428       .  S
C730        C731   1.406       .  A
C730        H735   1.084       .  S
C731        C959   1.483   1_545  S
C731       C1030   1.413       .  A
C732       C1025   1.397       .  A
C732       C1029   1.414       .  A
C732        N736   1.428       .  S
C733        C738   1.407       .  A
C733        C742   1.407       .  A
N734        O749   1.262       .  A
N734        O750   1.262       .  A
N736        O747   1.262       .  A
N736        O748   1.262       .  A
C738        C739   1.394       .  A
C738        N743   1.424       .  S
C739        C740   1.400       .  A
C739        H744   1.085       .  S
C740        C741   1.412       .  A
C741        C742   1.407       .  A
C741        N745   1.429       .  S
C742        H746   1.084       .  S
N743        O753   1.262       .  A
N743        O754   1.260       .  A
N745        O751   1.261       .  A
N745        O752   1.261       .  A
C755        C756   1.399       .  A
C755        C760   1.398       .  A
C756        C761   1.480       .  S
C756        C757   1.412       .  A
C757        C758   1.402       .  A
C757        N762   1.425       .  S
C758        C759   1.399       .  A
C758        H763   1.084       .  S
C759        C947   1.475   1_545  S
C759        C760   1.412       .  A
C761        C766   1.404       .  A
C761        C770   1.399       .  A
N762        O777   1.262       .  A
N762        O778   1.262       .  A
N764       C1654   1.429       .  S
N764       O1073   1.262       .  A
N764        O776   1.262       .  A
H765       C1351   1.084       .  S
C766        C767   1.395       .  A
C766        N771   1.426       .  S
C767        C768   1.410       .  A
C767        H772   1.058       .  S
C768        C769   1.424       .  A
C769        C770   1.406       .  A
C769        N773   1.429       .  S
C770        H774   1.082       .  S
N773        O779   1.262       .  A
N773        O780   1.261       .  A
O775       N1062   1.262       .  A
O781       N1367   1.261       .  A
O782       N1367   1.261       .  A
C783        C784   1.399       .  A
C783        C788   1.398       .  A
C783        H793   1.083       .  S
C784        C789   1.485       .  S
C784        C785   1.412       .  A
C785        C786   1.407       .  A
C785        N790   1.428       .  S
C786        C787   1.406       .  A
C786        H791   1.084       .  S
C787        C788   1.416       .  A
C789        C794   1.405       .  A
C789        C798   1.400       .  A
N790        O805   1.262       .  A
N790        O806   1.261       .  A
N792       C1384   1.428       .  S
N792        O803   1.262       .  A
N792        O804   1.262       .  A
C794        C795   1.401       .  A
C794        N799   1.428       .  S
C795        C796   1.416       .  A
C795        H800   1.074       .  S
C796        C797   1.420       .  A
C797        C798   1.401       .  A
C797        N801   1.428       .  S
C798        H802   1.084       .  S
N799        O809   1.262       .  A
N799        O810   1.261       .  A
N801        O807   1.261       .  A
N801        O808   1.262       .  A
C811        C812   1.405       .  A
C811        C816   1.410       .  A
C811        H821   1.084       .  S
C812        C817   1.485       .  S
C812        C813   1.409       .  A
C813        C814   1.397       .  A
C814        C815   1.402       .  A
C815        C816   1.414       .  A
C816        N820   1.427       .  S
C817        C822   1.412       .  A
C817        C826   1.399       .  A
N818       C1409   1.427       .  S
N818        O833   1.261       .  A
N818        O834   1.262       .  A
H819       C1410   1.084       .  S
N820        O831   1.261       .  A
N820        O832   1.262       .  A
C822        C823   1.406       .  A
C822        N827   1.427       .  S
C823        C824   1.403       .  A
C823        H828   1.083       .  S
C824        C825   1.413       .  A
C825        C826   1.397       .  A
C825        N829   1.427       .  S
C826        H830   1.085       .  S
N827        O837   1.262       .  A
N827        O838   1.261       .  A
N829        O835   1.261       .  A
O836       N1425   1.261       .  A
C839        C840   1.402       .  A
C839        C844   1.404       .  A
C839       H1445   1.084       .  S
C840        C845   1.487       .  S
C840        C841   1.411       .  A
C841        C842   1.395       .  A
C841        N846   1.429       .  S
C842        C843   1.407       .  A
C842        H847   1.078       .  S
C843        C844   1.424       .  A
C844        N848   1.431       .  S
C845       C1446   1.409       .  A
C845        C854   1.407       .  A
N846        O861   1.260       .  A
N846        O862   1.261       .  A
N848       O1455   1.262       .  A
N848        O860   1.262       .  A
C850        C851   1.394       .  A
C850        N855   1.423       .  S
C851        H856   1.084   1_545  S
C852        C946   1.481   1_545  S
C852       C1447   1.403       .  A
C852        C853   1.410       .  A
C853        C854   1.406       .  A
C853        N857   1.428       .  S
C854        H858   1.084       .  S
N855        O865   1.262       .  A
N855        O866   1.261       .  A
N857       O1161   1.262       .  A
N857        O864   1.260       .  A
O863       N1155   1.262       .  A
C867        C868   1.407       .  A
C867        C872   1.414       .  A
C867        H877   1.084       .  S
C868        C873   1.491       .  S
C868        C869   1.410       .  A
C869        C870   1.395       .  A
C869        N874   1.426       .  S
C870        C871   1.402       .  A
C870        H875   1.085       .  S
C871        C872   1.414       .  A
C872        N876   1.427       .  S
C873        C878   1.411       .  A
C873        C882   1.405       .  A
N874       O1485   1.261       .  A
N874        O890   1.262       .  A
N876        O887   1.261       .  A
N876        O888   1.261       .  A
C878        C879   1.404       .  A
C878        N883   1.426       .  S
C879        C880   1.400       .  A
C879        H884   1.084   1_545  S
C880        C964   1.479   1_545  S
C880       C1477   1.410       .  A
C881        N885   1.431       .  S
C882       C1477   1.408       .  A
C882       H1482   1.084       .  S
N883        O893   1.261       .  A
N883        O894   1.261       .  A
N885       O1189   1.263       .  A
N885        O892   1.261       .  A
O891       N1183   1.262       .  A
C895        C896   1.538       .  S
C895        C901   1.536       .  S
C895        C899   1.525       .  S
C895       C1141   1.537       .  S
C896        H903   1.085       .  S
C896        C897   1.365       .  D
C897        C898   1.546       .  S
C897       C1505   1.490       .  S
C898        C902   1.551       .  S
C898        C900   1.551       .  S
C898        H904   1.110       .  S
C899        H905   1.087       .  S
C899        C900   1.368       .  D
C900        C912   1.481       .  S
C901        H906   1.082       .  S
C901        C902   1.367       .  D
C902       C1169   1.496       .  S
C907        C908   1.537       .  S
C907        C913   1.532       .  S
C907        C911   1.543       .  S
C907       C1094   1.541       .  S
C908        H915   1.086       .  S
C908        C909   1.371       .  D
C909        C910   1.537       .  S
C910        C914   1.545       .  S
C910        C912   1.542       .  S
C910        H916   1.111       .  S
C911        H917   1.085       .  S
C911        C912   1.362       .  D
C913        H918   1.083       .  S
C913        C914   1.366       .  D
C914       C1122   1.476       .  S
C919        C920   1.547       .  S
C919        C925   1.535   1_556  S
C919        C923   1.532       .  S
C919       C1066   1.547       .  S
C920        H927   1.082       .  S
C920        C921   1.361   1_556  D
C921        C922   1.542       .  S
C922        C926   1.545       .  S
C922        C924   1.546       .  S
C922        H928   1.106       .  S
C923        H929   1.086       .  S
C923        C924   1.368   1_556  D
C924        C936   1.487       .  S
C925        H930   1.084       .  S
C925        C926   1.372       .  D
C926       C1038   1.485       .  S
C931        C932   1.532       .  S
C931        C937   1.541   1_556  S
C931        C935   1.532       .  S
C931       C1010   1.539       .  S
C932        H939   1.087       .  S
C932        C933   1.369   1_556  D
C933        C934   1.541       .  S
C933       C1517   1.481       .  S
C934        C938   1.546       .  S
C934        C936   1.549       .  S
C934        H940   1.107       .  S
C935        H941   1.086       .  S
C935        C936   1.364   1_556  D
C937        H942   1.078       .  S
C937        C938   1.363       .  D
C938        C973   1.486       .  S
O943        C946   1.275       .  A
O943      Cd1544   2.511       .  S
C944       O1549   1.269       .  A
C944        O949   1.277       .  A
C944       C1001   1.470       .  S
O945        C951   1.276       .  A
O945       Cd948   2.488       .  S
C946       O1550   1.265       .  A
C947        O952   1.276       .  A
C947        O950   1.266       .  A
Cd948       O955   2.419       .  S
Cd948       O954   2.373       .  S
Cd948       O953   2.344       .  S
Cd948       O952   2.491       .  S
Cd948       O950   2.395       .  S
O949      Cd1544   2.460       .  S
C951        O955   1.269       .  A
C951       C1085   1.482       .  S
O956        C959   1.279       .  A
O956       Cd961   2.475       .  S
C957        O962   1.279       .  A
C957       C1113   1.485       .  S
O958        C964   1.275       .  A
O958      Cd1557   2.476       .  S
C960        O965   1.276       .  A
C960       O1559   1.271       .  A
C960        C982   1.480       .  S
Cd961       O968   2.401       .  S
Cd961       O962   2.525       .  S
Cd961       O963   2.444       .  S
C964       O1564   1.270       .  A
O965      Cd1557   2.456       .  S
O966       C1553   1.268       .  A
O966      Cd1557   2.362       .  S
O967       C1555   1.270       .  A
O967      Cd1557   2.402       .  S
C969        C970   1.407       .  A
C969        C974   1.412       .  A
C969       H1575   1.083       .  S
C970        C975   1.488       .  S
C970        C971   1.405       .  A
C971        C972   1.396       .  A
C971        N976   1.425       .  S
C972        C973   1.402       .  A
C972        H977   1.083       .  S
C973        C974   1.419       .  A
C974       N1574   1.440       .  S
C975        C980   1.412       .  A
C975        C984   1.398       .  A
N976        O991   1.262       .  A
N976        O992   1.259       .  A
N978        O989   1.262       .  A
N978        O990   1.261       .  A
C980        C981   1.406       .  A
C980        N985   1.427       .  S
C981        C982   1.405       .  A
C981        H986   1.084       .  S
C982        C983   1.411       .  A
C983        C984   1.396       .  A
C983        N987   1.429       .  S
C984        H988   1.076       .  S
N985        O995   1.262       .  A
N985        O996   1.262       .  A
N987        O993   1.261       .  A
N987        O994   1.262       .  A
C997        C998   1.404       .  A
C997       C1002   1.398       .  A
C997       H1007   1.083       .  S
C998       C1003   1.481       .  S
C998        C999   1.410       .  A
C999       C1000   1.394       .  A
C999       N1004   1.429       .  S
C1000      C1001   1.403       .  A
C1000      H1005   1.084       .  S
C1001      C1002   1.408       .  A
C1002      N1006   1.427       .  S
C1003      C1008   1.407       .  A
C1003      C1012   1.399       .  A
N1004      O1615   1.262       .  A
N1004      O1020   1.262       .  A
N1006      O1017   1.261       .  A
N1006      O1018   1.261       .  A
C1008      C1009   1.393       .  A
C1008      N1609   1.430       .  S
C1009      C1010   1.409       .  A
C1009      H1014   1.070       .  S
C1010      C1011   1.427       .  A
C1011      C1012   1.402       .  A
C1011      N1015   1.431       .  S
C1012      H1016   1.083       .  S
N1013      O1023   1.262       .  A
N1013      O1024   1.262       .  A
N1015      O1021   1.262       .  A
N1015      O1022   1.262       .  A
C1025      C1026   1.399       .  A
C1025      H1035   1.084       .  S
C1026      C1031   1.484       .  S
C1026      C1027   1.410       .  A
C1027      C1028   1.407       .  A
C1027      N1032   1.426       .  S
C1028      C1029   1.404       .  A
C1028      H1033   1.084       .  S
C1030      N1034   1.428   1_545  S
C1031      C1036   1.407       .  A
C1031      C1040   1.405       .  A
N1032      O1047   1.262       .  A
N1032      O1048   1.262       .  A
N1034      O1045   1.262   1_565  A
N1034      O1046   1.261       .  A
C1036      C1037   1.398       .  A
C1036      N1041   1.425       .  S
C1037      C1038   1.401       .  A
C1037      H1042   1.085       .  S
C1038      C1039   1.413       .  A
C1039      C1040   1.405       .  A
C1039      N1043   1.429       .  S
C1040      H1044   1.084       .  S
N1041      O1051   1.262       .  A
N1041      O1052   1.261       .  A
N1043      O1049   1.261       .  A
N1043      O1050   1.262       .  A
C1053      C1054   1.400       .  A
C1053      C1058   1.399       .  A
C1054      C1059   1.486       .  S
C1054      C1055   1.415       .  A
C1055      C1056   1.405       .  A
C1055      N1060   1.427       .  S
C1056      C1057   1.401       .  A
C1056      H1061   1.084       .  S
C1057      C1058   1.415       .  A
C1059      C1064   1.405       .  A
C1059      C1068   1.403       .  A
N1060      O1075   1.262       .  A
N1060      O1076   1.261       .  A
N1062      C1356   1.428   1_565  S
N1062      O1074   1.262       .  A
H1063      C1649   1.085       .  S
C1064      C1065   1.397       .  A
C1064      N1069   1.428       .  S
C1065      C1066   1.413       .  A
C1065      H1070   1.076       .  S
C1066      C1067   1.424       .  A
C1067      C1068   1.410       .  A
C1067      N1071   1.430       .  S
C1068      H1072   1.083       .  S
N1071      O1077   1.262       .  A
N1071      O1078   1.262       .  A
O1079      N1665   1.261       .  A
O1080      N1665   1.262       .  A
C1081      C1082   1.398       .  A
C1081      C1086   1.398       .  A
C1081      H1091   1.084       .  S
C1082      C1087   1.481       .  S
C1082      C1083   1.411       .  A
C1083      C1084   1.405       .  A
C1083      N1088   1.427       .  S
C1084      C1085   1.404       .  A
C1084      H1089   1.084       .  S
C1085      C1086   1.414       .  A
C1087      C1092   1.406       .  A
C1087      C1096   1.398       .  A
N1088      O1103   1.262       .  A
N1088      O1104   1.261       .  A
N1090      C1682   1.429       .  S
N1090      O1101   1.262       .  A
N1090      O1102   1.262       .  A
C1092      C1093   1.399       .  A
C1092      N1097   1.428       .  S
C1093      C1094   1.413       .  A
C1093      H1098   1.080       .  S
C1094      C1095   1.422       .  A
C1095      C1096   1.402       .  A
C1095      N1099   1.428       .  S
C1096      H1100   1.084       .  S
N1097      O1107   1.262       .  A
N1097      O1108   1.262       .  A
N1099      O1105   1.262       .  A
N1099      O1106   1.262       .  A
C1109      C1110   1.405       .  A
C1109      C1114   1.408       .  A
C1109      H1119   1.084       .  S
C1110      C1115   1.482       .  S
C1110      C1111   1.406       .  A
C1111      C1112   1.395       .  A
C1112      C1113   1.404       .  A
C1113      C1114   1.414       .  A
C1114      N1118   1.428       .  S
C1115      C1120   1.410       .  A
C1115      C1124   1.402       .  A
N1116      C1707   1.427       .  S
N1116      O1131   1.261       .  A
N1116      O1132   1.262       .  A
H1117      C1708   1.084       .  S
N1118      O1129   1.262       .  A
N1118      O1130   1.262       .  A
C1120      C1121   1.401       .  A
C1120      N1125   1.426       .  S
C1121      C1122   1.398       .  A
C1121      H1126   1.083       .  S
C1122      C1123   1.411       .  A
C1123      C1124   1.399       .  A
C1123      N1127   1.429       .  S
C1124      H1128   1.084       .  S
N1125      O1135   1.262       .  A
N1125      O1136   1.262       .  A
N1127      O1133   1.261       .  A
O1134      N1723   1.262       .  A
C1137      C1138   1.400       .  A
C1137      C1142   1.401       .  A
C1137      H1743   1.084       .  S
C1138      C1143   1.481       .  S
C1138      C1139   1.409       .  A
C1139      C1140   1.396       .  A
C1139      N1144   1.430       .  S
C1140      C1141   1.409       .  A
C1140      H1145   1.078       .  S
C1141      C1142   1.422       .  A
C1142      N1146   1.430       .  S
C1143      C1744   1.409       .  A
C1143      C1152   1.405       .  A
N1144      O1159   1.260       .  A
N1144      O1160   1.260       .  A
N1146      O1753   1.262       .  A
N1146      O1158   1.262       .  A
C1148      C1149   1.392       .  A
C1148      N1153   1.424       .  S
C1149      H1154   1.084       .  S
C1150      C1745   1.403       .  A
C1150      C1151   1.412       .  A
C1151      C1152   1.404       .  A
C1151      N1155   1.428       .  S
C1152      H1156   1.084       .  S
N1153      O1163   1.262       .  A
N1153      O1164   1.260       .  A
N1155      O1162   1.260       .  A
C1165      C1166   1.407       .  A
C1165      C1170   1.412       .  A
C1165      H1175   1.084       .  S
C1166      C1171   1.492       .  S
C1166      C1167   1.410       .  A
C1167      C1168   1.395       .  A
C1167      N1172   1.427       .  S
C1168      C1169   1.403       .  A
C1168      H1173   1.084       .  S
C1169      C1170   1.412       .  A
C1170      N1174   1.426       .  S
C1171      C1176   1.407       .  A
C1171      C1180   1.404       .  A
N1172      O1783   1.261       .  A
N1172      O1188   1.262       .  A
N1174      O1185   1.261       .  A
N1174      O1186   1.262       .  A
C1176      C1177   1.402       .  A
C1176      N1181   1.422       .  S
C1177      C1178   1.401       .  A
C1177      H1182   1.084       .  S
C1178      C1775   1.414       .  A
C1179      N1183   1.431       .  S
C1180      C1775   1.409       .  A
C1180      H1780   1.084       .  S
N1181      O1191   1.260       .  A
N1181      O1192   1.261       .  A
N1183      O1190   1.261       .  A
C1193      C1194   1.538       .  S
C1193      C1199   1.538       .  S
C1193      C1197   1.525       .  S
C1193      C1439   1.537       .  S
C1194      H1201   1.086       .  S
C1194      C1195   1.363       .  D
C1195      C1196   1.551       .  S
C1196      C1200   1.553       .  S
C1196      C1198   1.552       .  S
C1196      H1202   1.110       .  S
C1197      H1203   1.086       .  S
C1197      C1198   1.369       .  D
C1198      C1210   1.481       .  S
C1199      H1204   1.080       .  S
C1199      C1200   1.368       .  D
C1200      C1467   1.500       .  S
C1205      C1206   1.538       .  S
C1205      C1211   1.530       .  S
C1205      C1209   1.542       .  S
C1205      C1392   1.540       .  S
C1206      H1213   1.087       .  S
C1206      C1207   1.368       .  D
C1207      C1208   1.540       .  S
C1208      C1212   1.552       .  S
C1208      C1210   1.545       .  S
C1208      H1214   1.111       .  S
C1209      H1215   1.081       .  S
C1209      C1210   1.362       .  D
C1211      H1216   1.084       .  S
C1211      C1212   1.368       .  D
C1212      C1420   1.486       .  S
C1217      C1218   1.545       .  S
C1217      C1223   1.530   1_556  S
C1217      C1221   1.528       .  S
C1217      C1364   1.539       .  S
C1218      H1225   1.082       .  S
C1218      C1219   1.364   1_556  D
C1219      C1220   1.544       .  S
C1220      C1224   1.546       .  S
C1220      C1222   1.543       .  S
C1220      H1226   1.105       .  S
C1221      H1227   1.087       .  S
C1221      C1222   1.362   1_556  D
C1222      C1234   1.479       .  S
C1223      H1228   1.085       .  S
C1223      C1224   1.372       .  D
C1224      C1336   1.488       .  S
C1229      C1230   1.536       .  S
C1229      C1235   1.543   1_556  S
C1229      C1233   1.531       .  S
C1229      C1308   1.538       .  S
C1230      H1237   1.086   1_655  S
C1230      C1231   1.366   1_556  D
C1231      C1232   1.543       .  S
C1232      C1236   1.546       .  S
C1232      C1234   1.543       .  S
C1232      H1238   1.108       .  S
C1233      H1239   1.086       .  S
C1233      C1234   1.365   1_556  D
C1235      H1240   1.080       .  S
C1235      C1236   1.364       .  D
C1236      C1271   1.486       .  S
O1241      C1244   1.272       .  A
C1242      O1247   1.275       .  A
C1242      C1299   1.475       .  S
O1243      C1249   1.273       .  A
O1243     Cd1246   2.487       .  S
C1244      C1746   1.483       .  S
C1245      O1250   1.272       .  A
C1245      O1248   1.263       .  A
C1245      C1653   1.479       .  S
Cd1246     O1253   2.456       .  S
Cd1246     O1252   2.377       .  S
Cd1246     O1251   2.351       .  S
Cd1246     O1250   2.518       .  S
Cd1246     O1248   2.410       .  S
C1249      O1253   1.267       .  A
C1249      C1383   1.484       .  S
O1254      C1257   1.275       .  A
O1254     Cd1259   2.509       .  S
C1255      O1260   1.275       .  A
C1255      C1411   1.485       .  S
O1256      C1262   1.274       .  A
C1257      C1625   1.485       .  S
C1258      O1263   1.275       .  A
C1258      C1280   1.479       .  S
Cd1259     O1266   2.435       .  S
Cd1259     O1260   2.540       .  S
Cd1259     O1261   2.414       .  S
C1262      C1774   1.482       .  S
C1267      C1268   1.406       .  A
C1267      C1272   1.407       .  A
C1268      C1273   1.499       .  S
C1268      C1269   1.418       .  A
C1269      C1270   1.404       .  A
C1269      N1274   1.439       .  S
C1270      C1271   1.401       .  A
C1270      H1275   1.079       .  S
C1271      C1272   1.412       .  A
C1273      C1278   1.416       .  A
C1273      C1282   1.407       .  A
N1274      O1289   1.263       .  A
N1274      O1290   1.262       .  A
N1276      O1287   1.262       .  A
N1276      O1288   1.262       .  A
C1278      C1279   1.403       .  A
C1278      N1283   1.428       .  S
C1279      C1280   1.403       .  A
C1279      H1284   1.084   1_655  S
C1280      C1281   1.407       .  A
C1281      C1282   1.399       .  A
C1281      N1285   1.425       .  S
C1282      H1286   1.083       .  S
N1283      O1293   1.262   1_655  A
N1283      O1294   1.262       .  A
N1285      O1291   1.261       .  A
N1285      O1292   1.260       .  A
C1295      C1296   1.404       .  A
C1295      C1300   1.401       .  A
C1295      H1305   1.083       .  S
C1296      C1301   1.485       .  S
C1296      C1297   1.414       .  A
C1297      C1298   1.391       .  A
C1297      N1302   1.430   1_655  S
C1298      C1299   1.402       .  A
C1298      H1303   1.084   1_655  S
C1299      C1300   1.410       .  A
C1300      N1304   1.425       .  S
C1301      C1306   1.411       .  A
C1301      C1310   1.397       .  A
N1302      O1318   1.262       .  A
N1304      O1315   1.262       .  A
N1304      O1316   1.260       .  A
C1306      C1307   1.399       .  A
C1307      C1308   1.411       .  A
C1307      H1312   1.074       .  S
C1308      C1309   1.424       .  A
C1309      C1310   1.397       .  A
C1309      N1313   1.430       .  S
C1310      H1314   1.083       .  S
N1311      O1321   1.262       .  A
N1311      O1322   1.262       .  A
N1313      O1319   1.262       .  A
N1313      O1320   1.262       .  A
C1323      C1324   1.397       .  A
C1323      C1626   1.395       .  A
C1323      H1333   1.080       .  S
C1324      C1329   1.482       .  S
C1324      C1325   1.410       .  A
C1325      C1326   1.405       .  A
C1325      N1330   1.427       .  S
C1326      C1327   1.405       .  A
C1326      H1331   1.084       .  S
C1327      C1555   1.480   1_545  S
C1327      C1626   1.415       .  A
C1328      C1621   1.397       .  A
C1328      C1625   1.415       .  A
C1328      N1332   1.426       .  S
C1329      C1334   1.404       .  A
C1329      C1338   1.406       .  A
N1330      O1345   1.262       .  A
N1330      O1346   1.262       .  A
N1332      O1343   1.261       .  A
N1332      O1344   1.262       .  A
C1334      C1335   1.392       .  A
C1334      N1339   1.424       .  S
C1335      C1336   1.400       .  A
C1335      H1340   1.085       .  S
C1336      C1337   1.414       .  A
C1337      C1338   1.409       .  A
C1337      N1341   1.429       .  S
C1338      H1342   1.084       .  S
N1339      O1349   1.262       .  A
N1339      O1350   1.259       .  A
N1341      O1347   1.261       .  A
N1341      O1348   1.261       .  A
C1351      C1352   1.400       .  A
C1351      C1356   1.397       .  A
C1352      C1357   1.485       .  S
C1352      C1353   1.416       .  A
C1353      C1354   1.406       .  A
C1353      N1358   1.427       .  S
C1354      C1355   1.400       .  A
C1354      H1359   1.084       .  S
C1355      C1543   1.478   1_545  S
C1355      C1356   1.411       .  A
C1357      C1362   1.406       .  A
C1357      C1366   1.402       .  A
N1358      O1373   1.261       .  A
N1358      O1374   1.261       .  A
N1360      O1669   1.262       .  A
N1360      O1372   1.262   1_455  A
C1362      C1363   1.396       .  A
C1362      N1367   1.426       .  S
C1363      C1364   1.409       .  A
C1363      H1368   1.077       .  S
C1364      C1365   1.423       .  A
C1365      C1366   1.406       .  A
C1365      N1369   1.430       .  S
C1366      H1370   1.084       .  S
N1369      O1375   1.262       .  A
N1369      O1376   1.262       .  A
O1371      N1658   1.261       .  A
C1379      C1380   1.399       .  A
C1379      C1384   1.400       .  A
C1379      H1389   1.084       .  S
C1380      C1385   1.479       .  S
C1380      C1381   1.409       .  A
C1381      C1382   1.403       .  A
C1381      N1386   1.427       .  S
C1382      C1383   1.404       .  A
C1382      H1387   1.084       .  S
C1383      C1384   1.415       .  A
C1385      C1390   1.404       .  A
C1385      C1394   1.396       .  A
N1386      O1401   1.262       .  A
N1386      O1402   1.261       .  A
N1388      O1399   1.262       .  A
N1388      O1400   1.262       .  A
C1390      C1391   1.399       .  A
C1390      N1395   1.427       .  S
C1391      C1392   1.415       .  A
C1391      H1396   1.076       .  S
C1392      C1393   1.421       .  A
C1393      C1394   1.400       .  A
C1393      N1397   1.428       .  S
C1394      H1398   1.084       .  S
N1395      O1405   1.262       .  A
N1395      O1406   1.261       .  A
N1397      O1403   1.261       .  A
N1397      O1404   1.262       .  A
C1407      C1408   1.406       .  A
C1407      C1412   1.408       .  A
C1407      H1417   1.084       .  S
C1408      C1413   1.482       .  S
C1408      C1409   1.406       .  A
C1409      C1410   1.398       .  A
C1410      C1411   1.405       .  A
C1411      C1412   1.413       .  A
C1412      N1416   1.428       .  S
C1413      C1418   1.412       .  A
C1413      C1422   1.397       .  A
N1414      O1429   1.261       .  A
N1414      O1430   1.262       .  A
N1416      O1427   1.262       .  A
N1416      O1428   1.262       .  A
C1418      C1419   1.405       .  A
C1418      N1423   1.427       .  S
C1419      C1420   1.402       .  A
C1419      H1424   1.082       .  S
C1420      C1421   1.414       .  A
C1421      C1422   1.396       .  A
C1421      N1425   1.427       .  S
C1422      H1426   1.085       .  S
N1423      O1433   1.262       .  A
N1423      O1434   1.262       .  A
N1425      O1431   1.262       .  A
C1435      C1436   1.399       .  A
C1435      C1440   1.401       .  A
C1436      C1441   1.478       .  S
C1436      C1437   1.407       .  A
C1437      C1438   1.396       .  A
C1437      N1442   1.430       .  S
C1438      C1439   1.409       .  A
C1438      H1443   1.076       .  S
C1439      C1440   1.424       .  A
C1440      N1444   1.431       .  S
C1441      C1450   1.403       .  A
N1442      O1457   1.261       .  A
N1442      O1458   1.261       .  A
N1444      O1456   1.262       .  A
C1446      C1447   1.395       .  A
C1446      N1451   1.427       .  S
C1447      H1452   1.084   1_545  S
C1448      C1542   1.479   1_545  S
C1448      C1449   1.410       .  A
C1449      C1450   1.403       .  A
C1449      N1453   1.426       .  S
C1450      H1454   1.084       .  S
N1451      O1461   1.262       .  A
N1451      O1462   1.262   1_545  A
N1453      O1757   1.262       .  A
N1453      O1460   1.259       .  A
O1459      N1751   1.262       .  A
C1463      C1464   1.407       .  A
C1463      C1468   1.413       .  A
C1463      H1473   1.084       .  S
C1464      C1469   1.493       .  S
C1464      C1465   1.408       .  A
C1465      C1466   1.397       .  A
C1465      N1470   1.428   1_655  S
C1466      C1467   1.404       .  A
C1466      H1471   1.084       .  S
C1467      C1468   1.415       .  A
C1468      N1472   1.427       .  S
C1469      C1474   1.408       .  A
C1469      C1478   1.403   1_655  A
N1470      O1486   1.262   1_455  A
N1472      O1483   1.261       .  A
N1472      O1484   1.262       .  A
C1474      C1475   1.403       .  A
C1474      N1479   1.422       .  S
C1475      C1476   1.402       .  A
C1475      H1480   1.084   1_545  S
C1476      C1560   1.489   1_545  S
C1477      N1481   1.431       .  S
N1479      O1489   1.259       .  A
N1479      O1490   1.261       .  A
N1481      O1785   1.262       .  A
N1481      O1488   1.262       .  A
O1487      N1779   1.262       .  A
C1491      C1492   1.539       .  S
C1491      C1497   1.540       .  S
C1491      C1495   1.526       .  S
C1491      C1737   1.544       .  S
C1492      H1499   1.086       .  S
C1492      C1493   1.366       .  D
C1493      C1494   1.547       .  S
C1494      C1498   1.548       .  S
C1494      C1496   1.552       .  S
C1494      H1500   1.111       .  S
C1495      H1501   1.087       .  S
C1495      C1496   1.368       .  D
C1496      C1508   1.483       .  S
C1497      H1502   1.081       .  S
C1497      C1498   1.369       .  D
C1498      C1765   1.495       .  S
C1503      C1504   1.535       .  S
C1503      C1509   1.531       .  S
C1503      C1507   1.545       .  S
C1503      C1690   1.544       .  S
C1504      H1511   1.087       .  S
C1504      C1505   1.368       .  D
C1505      C1506   1.544       .  S
C1506      C1510   1.553       .  S
C1506      C1508   1.541       .  S
C1506      H1512   1.111       .  S
C1507      H1513   1.081       .  S
C1507      C1508   1.362       .  D
C1509      H1514   1.084       .  S
C1509      C1510   1.369       .  D
C1510      C1718   1.490       .  S
C1515      C1516   1.546       .  S
C1515      C1521   1.527   1_556  S
C1515      C1519   1.530       .  S
C1515      C1662   1.549       .  S
C1516      H1523   1.044       .  S
C1516      C1517   1.366   1_556  D
C1517      C1518   1.544       .  S
C1518      C1522   1.552       .  S
C1518      C1520   1.546   1_554  S
C1518      H1524   1.109       .  S
C1519      H1525   1.086       .  S
C1519      C1520   1.367       .  D
C1520      C1532   1.485       .  S
C1521      H1526   1.085       .  S
C1521      C1522   1.377       .  D
C1522      C1634   1.499       .  S
C1527      C1528   1.526   1_655  S
C1527      C1533   1.540   1_556  S
C1527      C1531   1.534       .  S
C1527      C1606   1.544       .  S
C1528      H1535   1.087       .  S
C1528      C1529   1.368   1_556  D
C1529      C1530   1.551   1_455  S
C1530      C1534   1.550       .  S
C1530      C1532   1.545   1_554  S
C1530      H1536   1.107       .  S
C1531      H1537   1.085       .  S
C1531      C1532   1.367       .  D
C1533      H1538   1.080       .  S
C1533      C1534   1.371       .  D
C1534      C1569   1.503       .  S
O1539      C1542   1.277       .  A
C1540      O1545   1.279       .  A
C1540      C1597   1.472       .  S
O1541      C1547   1.278       .  A
O1541     Cd1544   2.478       .  S
C1543      O1548   1.276       .  A
C1543      O1546   1.266       .  A
Cd1544     O1551   2.430       .  S
Cd1544     O1550   2.363       .  S
Cd1544     O1549   2.338       .  S
Cd1544     O1548   2.498       .  S
Cd1544     O1546   2.411       .  S
C1547      O1551   1.270       .  A
C1547      C1681   1.488       .  S
O1552      C1555   1.280       .  A
O1552     Cd1557   2.463       .  S
C1553      O1558   1.279       .  A
C1553      C1709   1.486       .  S
O1554      C1560   1.277       .  A
C1556      O1561   1.277   1_455  A
C1556      C1578   1.483   1_455  S
Cd1557     O1564   2.418       .  S
Cd1557     O1558   2.534       .  S
Cd1557     O1559   2.428       .  S
C1565      C1566   1.405       .  A
C1565      C1570   1.411   1_655  A
C1566      C1571   1.486       .  S
C1566      C1567   1.406       .  A
C1567      C1568   1.396       .  A
C1567      N1572   1.426       .  S
C1568      C1569   1.406       .  A
C1568      H1573   1.084       .  S
C1569      C1570   1.415   1_655  A
C1571      C1576   1.412       .  A
C1571      C1580   1.399   1_655  A
N1572      O1587   1.262       .  A
N1572      O1588   1.260       .  A
N1574      O1585   1.263       .  A
N1574      O1586   1.262       .  A
C1576      C1577   1.406       .  A
C1576      N1581   1.427       .  S
C1577      C1578   1.405       .  A
C1577      H1582   1.084       .  S
C1578      C1579   1.413   1_655  A
C1579      C1580   1.398       .  A
C1579      N1583   1.429       .  S
C1580      H1584   1.083       .  S
N1581      O1591   1.262       .  A
N1581      O1592   1.261       .  A
N1583      O1589   1.262       .  A
N1583      O1590   1.262       .  A
C1593      C1594   1.404       .  A
C1593      C1598   1.400       .  A
C1593      H1603   1.084       .  S
C1594      C1599   1.481       .  S
C1594      C1595   1.410   1_655  A
C1595      C1596   1.395       .  A
C1595      N1600   1.429       .  S
C1596      C1597   1.403   1_455  A
C1596      H1601   1.084       .  S
C1597      C1598   1.408       .  A
C1598      N1602   1.427       .  S
C1599      C1604   1.406       .  A
C1599      C1608   1.396       .  A
N1600      O1616   1.262       .  A
N1602      O1613   1.260       .  A
N1602      O1614   1.261       .  A
C1604      C1605   1.397       .  A
C1605      C1606   1.411       .  A
C1605      H1610   1.075   1_655  S
C1606      C1607   1.428       .  A
C1607      C1608   1.403       .  A
C1607      N1611   1.430       .  S
C1608      H1612   1.084       .  S
N1609      O1619   1.262       .  A
N1609      O1620   1.262       .  A
N1611      O1617   1.262   1_655  A
N1611      O1618   1.262       .  A
C1621      C1622   1.398       .  A
C1621      H1631   1.084       .  S
C1622      C1627   1.487       .  S
C1622      C1623   1.413       .  A
C1623      C1624   1.407       .  A
C1623      N1628   1.427       .  S
C1624      C1625   1.403       .  A
C1624      H1629   1.084       .  S
C1626      N1630   1.429   1_545  S
C1627      C1632   1.407       .  A
C1627      C1636   1.406       .  A
N1628      O1643   1.262       .  A
N1628      O1644   1.262       .  A
N1630      O1641   1.262   1_565  A
N1630      O1642   1.261       .  A
C1632      C1633   1.393       .  A
C1632      N1637   1.425       .  S
C1633      C1634   1.401       .  A
C1633      H1638   1.084       .  S
C1634      C1635   1.418       .  A
C1635      C1636   1.412       .  A
C1635      N1639   1.427       .  S
C1636      H1640   1.084       .  S
N1637      O1647   1.262       .  A
N1637      O1648   1.260       .  A
N1639      O1645   1.262       .  A
N1639      O1646   1.261       .  A
C1649      C1650   1.397       .  A
C1649      C1654   1.393       .  A
C1650      C1655   1.482       .  S
C1650      C1651   1.413       .  A
C1651      C1652   1.408       .  A
C1651      N1656   1.428       .  S
C1652      C1653   1.405       .  A
C1652      H1657   1.084       .  S
C1653      C1654   1.412       .  A
C1655      C1660   1.403       .  A
C1655      C1664   1.401       .  A
N1656      O1671   1.262       .  A
N1656      O1672   1.262       .  A
N1658      O1670   1.261   1_565  A
C1660      C1661   1.399       .  A
C1660      N1665   1.427       .  S
C1661      C1662   1.416       .  A
C1661      H1666   1.018       .  S
C1662      C1663   1.424       .  A
C1663      C1664   1.411       .  A
C1663      N1667   1.429       .  S
C1664      H1668   1.079       .  S
N1667      O1673   1.262       .  A
N1667      O1674   1.262       .  A
C1677      C1678   1.400       .  A
C1677      C1682   1.400       .  A
C1677      H1687   1.083       .  S
C1678      C1683   1.485       .  S
C1678      C1679   1.412       .  A
C1679      C1680   1.405       .  A
C1679      N1684   1.428       .  S
C1680      C1681   1.404       .  A
C1680      H1685   1.084       .  S
C1681      C1682   1.416       .  A
C1683      C1688   1.404       .  A
C1683      C1692   1.399       .  A
N1684      O1699   1.262       .  A
N1684      O1700   1.261       .  A
N1686      O1697   1.262       .  A
N1686      O1698   1.262       .  A
C1688      C1689   1.400       .  A
C1688      N1693   1.428       .  S
C1689      C1690   1.415       .  A
C1689      H1694   1.076       .  S
C1690      C1691   1.421       .  A
C1691      C1692   1.402       .  A
C1691      N1695   1.429       .  S
C1692      H1696   1.081       .  S
N1693      O1703   1.262       .  A
N1693      O1704   1.261       .  A
N1695      O1701   1.261       .  A
N1695      O1702   1.262       .  A
C1705      C1706   1.407       .  A
C1705      C1710   1.410       .  A
C1705      H1715   1.084       .  S
C1706      C1711   1.482       .  S
C1706      C1707   1.406       .  A
C1707      C1708   1.393       .  A
C1708      C1709   1.403       .  A
C1709      C1710   1.414       .  A
C1710      N1714   1.428       .  S
C1711      C1716   1.410       .  A
C1711      C1720   1.397       .  A
N1712      O1727   1.261       .  A
N1712      O1728   1.261   1_655  A
N1714      O1725   1.261       .  A
N1714      O1726   1.262       .  A
C1716      C1717   1.407       .  A
C1716      N1721   1.428       .  S
C1717      C1718   1.404       .  A
C1717      H1722   1.081       .  S
C1718      C1719   1.415       .  A
C1719      C1720   1.396       .  A
C1719      N1723   1.427       .  S
C1720      H1724   1.085       .  S
N1721      O1731   1.262       .  A
N1721      O1732   1.262       .  A
N1723      O1729   1.262       .  A
C1733      C1734   1.399       .  A
C1733      C1738   1.403       .  A
C1734      C1739   1.488       .  S
C1734      C1735   1.410       .  A
C1735      C1736   1.399       .  A
C1735      N1740   1.430       .  S
C1736      C1737   1.411       .  A
C1736      H1741   1.076       .  S
C1737      C1738   1.425       .  A
C1738      N1742   1.430       .  S
C1739      C1748   1.406       .  A
N1740      O1755   1.261       .  A
N1740      O1756   1.261       .  A
N1742      O1754   1.262       .  A
C1744      C1745   1.393       .  A
C1744      N1749   1.429       .  S
C1745      H1750   1.084       .  S
C1746      C1747   1.411       .  A
C1747      C1748   1.407       .  A
C1747      N1751   1.427       .  S
C1748      H1752   1.084       .  S
N1749      O1759   1.262       .  A
N1749      O1760   1.262       .  A
N1751      O1758   1.260       .  A
C1761      C1762   1.407       .  A
C1761      C1766   1.412       .  A
C1761      H1771   1.084       .  S
C1762      C1767   1.494       .  S
C1762      C1763   1.412       .  A
C1763      C1764   1.396       .  A
C1763      N1768   1.426   1_655  S
C1764      C1765   1.400       .  A
C1764      H1769   1.085   1_655  S
C1765      C1766   1.412       .  A
C1766      N1770   1.425       .  S
C1767      C1772   1.409       .  A
C1767      C1776   1.405   1_655  A
N1768      O1784   1.262       .  A
N1770      O1781   1.260       .  A
N1770      O1782   1.261       .  A
C1772      C1773   1.402       .  A
C1772      N1777   1.422       .  S
C1773      C1774   1.399       .  A
C1773      H1778   1.084       .  S
C1775      N1779   1.430       .  S
N1777      O1787   1.260       .  A
N1777      O1788   1.261       .  A
N1779      O1786   1.261       .  A
