geometry optimzed in LAMMPS
_audit_creation_date              2020-11-30 
_audit_creation_method            'lammps2cif' 
_symmetry_space_group_name_H-M    'P1' 
_symmetry_Int_Tables_number       1 
_symmetry_cell_setting            triclinic 
loop_ 
_symmetry_equiv_pos_as_xyz 
  x,y,z 
_cell_length_a                    40.44611084 
_cell_length_b                    40.30083893771744 
_cell_length_c                    40.43944640202103 
_cell_angle_alpha                 89.8339944299665 
_cell_angle_beta                  90.09158229144965 
_cell_angle_gamma                 90.70916155268606 
loop_ 
_atom_site_label 
_atom_site_type_symbol 
_atom_site_fract_x 
_atom_site_fract_y 
_atom_site_fract_z 
_atom_site_charge 
O1          O  0.53084899  0.05263780  0.84148053    -0.86100
O2          O  0.53237496  0.04125180  0.65430899    -0.86200
O3          O  0.59679334  0.03793575  0.74391442    -0.87900
O4          O  0.52142880  0.11477782  0.75020732    -0.86700
O5          O  0.46464667  0.11348321  0.74959895    -0.86300
O6          O  0.59689007  0.98106599  0.74839909    -0.87600
O7          O  0.55815561  0.07395768  0.69329335    -0.86100
O8          O  0.56339791  0.07396769  0.79975652    -0.85700
Zr9        Zr  0.53970159  0.05659787  0.74771188     2.84300
O10         O  0.49340693  0.05473089  0.71295010    -1.07700
O11         O  0.53908736  0.01152424  0.78461707    -1.08400
C12         C  0.55535530  0.07026455  0.83034316     1.07000
C13         C  0.55281994  0.06445603  0.66332224     1.07000
C14         C  0.61142367  0.00959092  0.74388821     1.10000
C15         C  0.49282866  0.12889968  0.75173917     1.07700
H16         H  0.55875517  0.00619890  0.70387155     0.33300
O17         O  0.53943231  0.00707296  0.71777020    -1.28600
H18         H  0.49237734  0.07817424  0.79378873     0.33000
O19         O  0.49238888  0.05816873  0.78074872    -1.30300
O20         O  0.46002163  0.96028570  0.65862555    -0.86100
O21         O  0.44878260  0.97982820  0.84588369    -0.87600
O22         O  0.55548543  0.93629705  0.70311075    -0.86200
O23         O  0.43115502  0.07504013  0.69179380    -0.86200
O24         O  0.42205787  0.07482886  0.79690399    -0.85900
O25         O  0.55687834  0.94636234  0.80979022    -0.85700
O26         O  0.46296375  0.90359551  0.75903796    -0.86100
O27         O  0.38774680  0.97893486  0.74740664    -0.85600
O28         O  0.51971802  0.90474583  0.76140686    -0.86600
O29         O  0.38934891  0.03563658  0.74101852    -0.85800
O30         O  0.53231382  0.96590543  0.66040547    -0.86200
O31         O  0.52879964  0.97729869  0.84803875    -0.85900
O32         O  0.45331689  0.05439409  0.83972677    -0.85500
O33         O  0.45466416  0.04083389  0.65325091    -0.86000
O34         O  0.42957867  0.93539968  0.69998667    -0.86200
O35         O  0.42286285  0.94710577  0.80696204    -0.87600
Zr36       Zr  0.49317557  0.00478926  0.68327585     2.83100
Zr37       Zr  0.49116483  0.01328491  0.81729774     2.83500
Zr38       Zr  0.53901887  0.96204937  0.75454637     2.84100
Zr39       Zr  0.44618921  0.05546388  0.74608031     2.83400
Zr40       Zr  0.44491356  0.96094575  0.75252184     2.84200
O41         O  0.44477086  0.01046382  0.78262226    -1.08200
O42         O  0.49258927  0.95966805  0.72009964    -1.07700
C43         C  0.43891352  0.93861976  0.66959413     1.07000
C44         C  0.42733924  0.95751407  0.83684416     1.09600
C45         C  0.55110186  0.94313304  0.67228581     1.07200
C46         C  0.43613385  0.06525482  0.66200552     1.07500
C47         C  0.42983387  0.07224920  0.82766121     1.07100
C48         C  0.54991650  0.95498885  0.83966031     1.06700
C49         C  0.49135303  0.88962700  0.76246937     1.07100
C50         C  0.37412276  0.00732597  0.74231335     1.06600
H51         H  0.49069565  0.94533683  0.80261646     0.33300
O52         O  0.49127106  0.96371346  0.78726210    -1.29300
H53         H  0.42667685  0.00485569  0.70104404     0.33300
O54         O  0.44555586  0.00603209  0.71562817    -1.30600
C55         C  0.64464416  0.20452486  0.50267475    -0.02100
O56         O  0.56138090  0.08125211  0.30165208    -0.86100
O57         O  0.43379883  0.94081891  0.30682940    -0.86200
O58         O  0.45820084  0.05038315  0.34403656    -0.87900
O59         O  0.53343890  0.97388115  0.34543683    -0.86700
O60         O  0.55991678  0.94291772  0.30614137    -0.86300
O61         O  0.43211014  0.08045052  0.30350988    -0.87600
O62         O  0.45835914  0.97341344  0.34664386    -0.86100
O63         O  0.53198066  0.05492314  0.34292402    -0.85700
Zr64       Zr  0.49605128  0.01226310  0.31798912     2.84300
O65         O  0.49546441  0.96373932  0.28627283    -1.07700
O66         O  0.49643310  0.05872899  0.28288129    -1.08400
C67         C  0.55314461  0.07676982  0.33218696     1.07000
C68         C  0.43956788  0.94900751  0.33709967     1.07000
C69         C  0.43819108  0.07301730  0.33401080     1.10000
C70         C  0.55347998  0.95090258  0.33630801     1.07700
H71         H  0.42966012  0.01134827  0.29942245     0.33300
O72         O  0.44866223  0.01132178  0.28502790    -1.28600
H73         H  0.56227300  0.01217992  0.29875287     0.33000
O74         O  0.54307625  0.01163339  0.28456704    -1.30300
O75         O  0.42608208  0.94563140  0.20029716    -0.86100
O76         O  0.56387751  0.07470659  0.19488135    -0.87600
O77         O  0.39121686  0.03812460  0.25650237    -0.86200
O78         O  0.52295189  0.90582093  0.24942609    -0.86200
O79         O  0.59946700  0.98200671  0.25654216    -0.85900
O80         O  0.46911390  0.11522513  0.24435606    -0.85700
O81         O  0.45507070  0.04506394  0.15617691    -0.86100
O82         O  0.53073212  0.96806766  0.15856616    -0.85600
O83         O  0.42757350  0.07471389  0.19586298    -0.86600
O84         O  0.56198482  0.94396162  0.19943355    -0.85800
O85         O  0.39079864  0.98105247  0.25697365    -0.86200
O86         O  0.52593460  0.11501106  0.24301064    -0.85900
O87         O  0.60064484  0.03891870  0.25306369    -0.85500
O88         O  0.46615795  0.90531563  0.24885232    -0.86000
O89         O  0.45707215  0.96887448  0.15841933    -0.86200
O90         O  0.53602073  0.04410885  0.15561980    -0.87600
Zr91       Zr  0.44822178  0.96312394  0.25296419     2.83100
Zr92       Zr  0.54346194  0.05770990  0.24907177     2.83500
Zr93       Zr  0.44866360  0.05792751  0.25006499     2.84100
Zr94       Zr  0.54217707  0.96341498  0.25240085     2.83400
Zr95       Zr  0.49496479  0.00884648  0.18401221     2.84200
O96         O  0.54300440  0.00953437  0.21686548    -1.08200
O97         O  0.44790527  0.00961284  0.21795193    -1.07700
C98         C  0.43374594  0.94983134  0.16968052     1.07000
C99         C  0.55787977  0.06597462  0.16474855     1.09600
C100        C  0.37643761  0.00949258  0.25870682     1.07200
C101        C  0.49453676  0.89091278  0.24734757     1.07500
C102        C  0.61453036  0.01043742  0.25679626     1.07100
C103        C  0.49774333  0.12964768  0.24140512     1.06700
C104        C  0.43356065  0.06664962  0.16553099     1.07100
C105        C  0.55316787  0.94807387  0.16907607     1.06600
H106        H  0.49582305  0.07563467  0.20122502     0.33300
O107        O  0.49569756  0.05686168  0.21608193    -1.29300
H108        H  0.49442736  0.94303956  0.20561775     0.33300
O109        O  0.49485914  0.96273756  0.21912166    -1.30600
C110        C  0.30186147  0.85714487  0.00573083    -0.02100
C111        C  0.67992064  0.85567321  0.00383701    -0.02100
C112        C  0.65183519  0.82521507  0.50472625    -0.02100
C113        C  0.30902045  0.16748627  0.99598900    -0.02100
C114        C  0.68791368  0.16165126  0.99645549    -0.02100
C115        C  0.33727600  0.19610869  0.50114888    -0.02100
C116        C  0.34139890  0.81468935  0.49972776    -0.02100
O117        O  0.89018267  0.76535904  0.46600924    -0.86100
O118        O  0.02412479  0.75875346  0.59886940    -0.86200
O119        O  0.92945209  0.70773532  0.55967242    -0.87900
O120        O  0.93120415  0.81439399  0.56449116    -0.86700
O121        O  0.95537560  0.85629099  0.53405699    -0.86300
O122        O  0.96033255  0.66821287  0.53335676    -0.87600
O123        O  0.96734722  0.75868890  0.59944379    -0.86100
O124        O  0.89121921  0.76590161  0.52284662    -0.85700
Zr125      Zr  0.94863769  0.76173996  0.54182474     2.84300
O126        O  0.99499707  0.79682725  0.54246730    -1.07700
O127        O  0.94844462  0.72807454  0.49454874    -1.08400
C128        C  0.87617678  0.76752315  0.49462494     1.07000
C129        C  0.99588568  0.75693663  0.61378578     1.07000
C130        C  0.93799311  0.67761663  0.55407918     1.10000
C131        C  0.93625409  0.84523008  0.55725865     1.07700
H132        H  0.99676849  0.71484197  0.56009670     0.33300
O133        O  0.99618069  0.72912409  0.54091834    -1.28600
H134        H  0.92796778  0.80897886  0.49517013     0.33000
O135        O  0.94736878  0.79530809  0.49478601    -1.30300
O136        O  0.09952580  0.76855583  0.52330303    -0.86100
O137        O  0.96634471  0.75857850  0.38997948    -0.87600
O138        O  0.03733596  0.67023115  0.52962028    -0.86200
O139        O  0.03067438  0.85795966  0.53437982    -0.86200
O140        O  0.95283176  0.85575786  0.45834249    -0.85900
O141        O  0.95658672  0.66748291  0.45683918    -0.85700
O142        O  0.06708334  0.71443867  0.43133260    -0.86100
O143        O  0.05815029  0.82105800  0.42754225    -0.85600
O144        O  0.03582719  0.67218646  0.45419238    -0.86600
O145        O  0.02791403  0.86014952  0.45514504    -0.85800
O146        O  0.06602987  0.71102736  0.55750156    -0.86200
O147        O  0.92436622  0.70746371  0.43275838    -0.85900
O148        O  0.92821760  0.81480720  0.42701340    -0.85500
O149        O  0.06104117  0.81818916  0.56125150    -0.86000
O150        O  0.09899423  0.77281330  0.46665537    -0.86200
O151        O  0.02320025  0.76042413  0.39016864    -0.87600
Zr152      Zr  0.04253007  0.76418463  0.54145829     2.83100
Zr153      Zr  0.94747562  0.76182193  0.44741629     2.83500
Zr154      Zr  0.99652262  0.69610159  0.49335611     2.84100
Zr155      Zr  0.99333526  0.83059100  0.49514666     2.83400
Zr156      Zr  0.04193284  0.76617837  0.44740734     2.84200
O157        O  0.99371080  0.79767470  0.44733664    -1.08200
O158        O  0.04294988  0.73152007  0.49381143    -1.07700
C159        C  0.11371602  0.77277224  0.49507541     1.07000
C160        C  0.99484340  0.75745578  0.37555832     1.09600
C161        C  0.05984161  0.68041356  0.55014998     1.07200
C162        C  0.05278935  0.84844418  0.55541049     1.07500
C163        C  0.93275505  0.84528773  0.43564367     1.07100
C164        C  0.93216891  0.67699262  0.43844895     1.06700
C165        C  0.05954557  0.68360795  0.43578277     1.07100
C166        C  0.04949086  0.85114005  0.43353920     1.06600
H167        H  0.99589608  0.71611594  0.42748510     0.33300
O168        O  0.99566168  0.73025007  0.44670115    -1.29300
H169        H  0.06016382  0.81393124  0.49491679     0.33300
O170        O  0.04133261  0.79900323  0.49488535    -1.30600
O171        O  0.88830227  0.25070979  0.46781598    -0.86100
O172        O  0.02084995  0.26804592  0.60047357    -0.86200
O173        O  0.92842967  0.20458885  0.56543602    -0.87900
O174        O  0.92397599  0.31266083  0.56258633    -0.86700
O175        O  0.95207153  0.35334078  0.53366471    -0.86300
O176        O  0.95732322  0.16444643  0.53779010    -0.87600
O177        O  0.96409120  0.26424649  0.60170767    -0.86100
O178        O  0.88816046  0.25111797  0.52455121    -0.85700
Zr179      Zr  0.94529590  0.25900062  0.54457276     2.84300
O180        O  0.99253194  0.29358521  0.54452614    -1.07700
O181        O  0.94543397  0.22516223  0.49763293    -1.08400
C182        C  0.87380575  0.24790888  0.49603256     1.07000
C183        C  0.99262581  0.26854243  0.61555261     1.07000
C184        C  0.93621481  0.17415784  0.55971195     1.10000
C185        C  0.92999480  0.34325362  0.55460946     1.07700
H186        H  0.99388468  0.21352057  0.56410422     0.33300
O187        O  0.99338815  0.22693907  0.54427436    -1.28600
H188        H  0.92473781  0.30600255  0.49756054     0.33000
O189        O  0.94465337  0.29302210  0.49768586    -1.30300
O190        O  0.09749852  0.25537660  0.52401119    -0.86100
O191        O  0.96173016  0.26352957  0.39336792    -0.87600
O192        O  0.03398807  0.16745260  0.53338117    -0.86200
O193        O  0.03186642  0.35545792  0.53546427    -0.86200
O194        O  0.95406100  0.35301769  0.45852352    -0.85900
O195        O  0.95712766  0.16573765  0.45584520    -0.85700
O196        O  0.05605960  0.20693551  0.42709385    -0.86100
O197        O  0.05978019  0.31516066  0.43181944    -0.85600
O198        O  0.03090513  0.16622188  0.45843492    -0.86600
O199        O  0.02934076  0.35461993  0.45878873    -0.85800
O200        O  0.05837028  0.20881659  0.56437557    -0.86200
O201        O  0.92753584  0.20614865  0.42915859    -0.85900
O202        O  0.92328490  0.31230285  0.43281207    -0.85500
O203        O  0.06442686  0.31552972  0.55911571    -0.86000
O204        O  0.09662704  0.25362361  0.46723054    -0.86200
O205        O  0.01847457  0.26475274  0.39201466    -0.87600
Zr206      Zr  0.04042648  0.26175671  0.54349655     2.83100
Zr207      Zr  0.94514517  0.25932677  0.45078524     2.83500
Zr208      Zr  0.99309855  0.19278339  0.49709722     2.84100
Zr209      Zr  0.99232670  0.32720672  0.49756473     2.83400
Zr210      Zr  0.03935564  0.26069036  0.44895740     2.84200
O211        O  0.99211296  0.29366284  0.45029230    -1.08200
O212        O  0.03968086  0.22778196  0.49660804    -1.07700
C213        C  0.11155694  0.25194438  0.49550501     1.07000
C214        C  0.98962570  0.26571563  0.37812539     1.09600
C215        C  0.05382856  0.17826281  0.55609654     1.07200
C216        C  0.05639612  0.34603244  0.55387397     1.07500
C217        C  0.93111696  0.34287228  0.43846468     1.07100
C218        C  0.93583466  0.17582526  0.43418525     1.06700
C219        C  0.05027825  0.17628763  0.43493007     1.07100
C220        C  0.05185005  0.34539772  0.43831179     1.06600
H221        H  0.99219653  0.21325260  0.42981691     0.33300
O222        O  0.99236072  0.22652955  0.44965984    -1.29300
H223        H  0.05986179  0.30848561  0.49573999     0.33300
O224        O  0.04014274  0.29472750  0.49603728    -1.30600
C225        C  0.80490294  0.51348514  0.64829341    -0.02100
C226        C  0.18904551  0.51484229  0.64974037    -0.02100
C227        C  0.84172353  0.00907892  0.30360943    -0.02100
C228        C  0.83753785  0.00724473  0.68849099    -0.02100
C229        C  0.80050977  0.50836253  0.34247016    -0.02100
C230        C  0.18186745  0.51344884  0.34340530    -0.02100
C231        C  0.14745080  0.01393176  0.30094197    -0.02100
C232        C  0.14996613  0.01505578  0.68362857    -0.02100
O233        O  0.73992894  0.61520670  0.96607852    -0.86100
O234        O  0.74691606  0.48123723  0.09903965    -0.86200
O235        O  0.68709129  0.57540189  0.06134994    -0.87900
O236        O  0.79394686  0.57813660  0.06042231    -0.86700
O237        O  0.83430200  0.54646949  0.03647764    -0.86300
O238        O  0.64738766  0.54943251  0.02969982    -0.87600
O239        O  0.74786232  0.53823256  0.09958245    -0.86100
O240        O  0.73757171  0.61487059  0.02283137    -0.85700
Zr241      Zr  0.74113759  0.55721796  0.04216877     2.84300
O242        O  0.77422431  0.50994023  0.04215286    -1.07700
O243        O  0.70984307  0.55770020  0.99382233    -1.08400
C244        C  0.73687293  0.62966779  0.99437697     1.07000
C245        C  0.74999061  0.50954377  0.11389406     1.07000
C246        C  0.65680998  0.56986984  0.05251991     1.10000
C247        C  0.82409256  0.56951512  0.05594544     1.07700
H248        H  0.69360295  0.50950136  0.06138093     0.33300
O249        O  0.70746166  0.50964778  0.04192655    -1.28600
H250        H  0.79013038  0.57747776  0.99651370     0.33000
O251        O  0.77638863  0.55770513  0.99606790    -1.30300
O252        O  0.73525409  0.40517509  0.02262382    -0.86100
O253        O  0.75364768  0.53989322  0.89103104    -0.87600
O254        O  0.64781698  0.47232543  0.03157985    -0.86200
O255        O  0.83487089  0.47115432  0.03442030    -0.86200
O256        O  0.83821753  0.55032940  0.96129947    -0.85900
O257        O  0.65137439  0.55180287  0.95625071    -0.85700
O258        O  0.68816150  0.44579191  0.92547987    -0.86100
O259        O  0.79506564  0.44311341  0.92826111    -0.85600
O260        O  0.64807637  0.47527365  0.95244962    -0.86600
O261        O  0.83504745  0.47171338  0.95745587    -0.85800
O262        O  0.68721325  0.44284082  0.05991597    -0.86200
O263        O  0.69289187  0.57542349  0.92492231    -0.85900
O264        O  0.79918823  0.57839463  0.93123705    -0.85500
O265        O  0.79405338  0.44111409  0.06074300    -0.86000
O266        O  0.73426657  0.40583125  0.96580686    -0.86200
O267        O  0.74901060  0.48306857  0.88966494    -0.87600
Zr268      Zr  0.74102493  0.46238163  0.04160470     2.83100
Zr269      Zr  0.74488523  0.55776031  0.94778747     2.83500
Zr270      Zr  0.67554007  0.51076022  0.99323796     2.84100
Zr271      Zr  0.80880826  0.50972779  0.99602948     2.83400
Zr272      Zr  0.74195991  0.46321884  0.94680998     2.84200
O273        O  0.77673033  0.51003473  0.94812855    -1.08200
O274        O  0.70833589  0.46346591  0.99373387    -1.07700
C275        C  0.73215414  0.39098040  0.99417020     1.07000
C276        C  0.75425904  0.51172299  0.87594017     1.09600
C277        C  0.65711496  0.45033286  0.05292832     1.07200
C278        C  0.82464594  0.44860161  0.05492816     1.07500
C279        C  0.82923202  0.57233552  0.93983942     1.07100
C280        C  0.66239798  0.57108593  0.93310732     1.06700
C281        C  0.65787397  0.45384978  0.93097898     1.07100
C282        C  0.82534494  0.45020473  0.93574124     1.06600
H283        H  0.69684052  0.51145070  0.92607746     0.33300
O284        O  0.70979769  0.51101528  0.94616238    -1.29300
H285        H  0.78809877  0.44209610  0.99476336     0.33300
O286        O  0.77492627  0.46194585  0.99470593    -1.30600
O287        O  0.24600900  0.61712687  0.97215717    -0.86100
O288        O  0.23551474  0.48239239  0.10295596    -0.86200
O289        O  0.18807568  0.57862979  0.06569554    -0.87900
O290        O  0.29463319  0.57693680  0.06631257    -0.86700
O291        O  0.33466291  0.54729489  0.03942944    -0.86300
O292        O  0.14756691  0.55194832  0.03553284    -0.87600
O293        O  0.23997951  0.53925838  0.10348831    -0.86100
O294        O  0.24751493  0.61562003  0.02893523    -0.85700
Zr295      Zr  0.24106738  0.55810471  0.04631230     2.84300
O296        O  0.27405371  0.51077225  0.04640946    -1.07700
O297        O  0.20733890  0.55978347  0.99917812    -1.08400
C298        C  0.24936055  0.63082210  0.00085220     1.07000
C299        C  0.23636827  0.51078198  0.11777793     1.07000
C300        C  0.15762447  0.57302092  0.05761287     1.10000
C301        C  0.32484609  0.56899613  0.06057532     1.07700
H302        H  0.19233955  0.51080980  0.06490139     0.33300
O303        O  0.20656031  0.51099729  0.04575897    -1.28600
H304        H  0.28933446  0.57757024  0.99961518     0.33000
O305        O  0.27476319  0.55844589  0.99932818    -1.30300
O306        O  0.24480709  0.40609836  0.02696112    -0.86100
O307        O  0.23698566  0.54144328  0.89440440    -0.87600
O308        O  0.14587924  0.47008104  0.03351289    -0.86200
O309        O  0.33392996  0.47104584  0.03595371    -0.86200
O310        O  0.33442000  0.54849538  0.95961860    -0.85900
O311        O  0.14761998  0.55140963  0.95996005    -0.85700
O312        O  0.18849501  0.44374491  0.93470818    -0.86100
O313        O  0.29417308  0.44804466  0.92860464    -0.85600
O314        O  0.14763694  0.47573663  0.95735948    -0.86600
O315        O  0.33441165  0.47404380  0.95948461    -0.85800
O316        O  0.18584213  0.44199591  0.06244246    -0.86200
O317        O  0.18816530  0.58202649  0.93381677    -0.85900
O318        O  0.29470606  0.57852136  0.93232914    -0.85500
O319        O  0.29293710  0.44616674  0.06696931    -0.86000
O320        O  0.24756404  0.40748600  0.97019626    -0.86200
O321        O  0.23740719  0.48443944  0.89346760    -0.87600
Zr322      Zr  0.23966523  0.46365301  0.04557670     2.83100
Zr323      Zr  0.24107645  0.56002076  0.95214349     2.83500
Zr324      Zr  0.17360880  0.51199293  0.99821739     2.84100
Zr325      Zr  0.30766386  0.51115148  0.99907289     2.83400
Zr326      Zr  0.24143078  0.46519834  0.95116448     2.84200
O327        O  0.27470213  0.51289281  0.95141079    -1.08200
O328        O  0.20686236  0.46443161  0.99779085    -1.07700
C329        C  0.24886196  0.39224858  0.99845542     1.07000
C330        C  0.23544038  0.51319019  0.87921236     1.09600
C331        C  0.15553525  0.44782060  0.05453784     1.07200
C332        C  0.32346634  0.45104038  0.05881955     1.07500
C333        C  0.32482611  0.57023271  0.93823612     1.07100
C334        C  0.15763264  0.57435331  0.93965887     1.06700
C335        C  0.15827128  0.45233687  0.93857068     1.07100
C336        C  0.32459604  0.45421761  0.93619881     1.06600
H337        H  0.19396817  0.51257875  0.93222237     0.33300
O338        O  0.20782495  0.51230804  0.95166278    -1.29300
H339        H  0.28812686  0.44519004  0.99867055     0.33300
O340        O  0.27389914  0.46421555  0.99880171    -1.30600
C341        C  0.99331382  0.70509417  0.84124354    -0.02100
C342        C  0.99485390  0.32655465  0.84053214    -0.02100
C343        C  0.49386723  0.66112690  0.80819042    -0.02100
C344        C  0.49427371  0.66678020  0.18449647    -0.02100
C345        C  0.98850007  0.31598759  0.15126884    -0.02100
C346        C  0.98803101  0.70032305  0.15023469    -0.02100
C347        C  0.48862386  0.35685580  0.80479530    -0.02100
C348        C  0.49182920  0.35571700  0.18426501    -0.02100
O349        O  0.55739749  0.43997465  0.54875784    -0.86100
O350        O  0.46343058  0.49113597  0.39356616    -0.86200
O351        O  0.47680376  0.40582844  0.47433491    -0.87900
O352        O  0.56786693  0.45609437  0.43736371    -0.86700
O353        O  0.58814529  0.50954629  0.44056415    -0.86300
O354        O  0.43259627  0.42364019  0.50484049    -0.87600
O355        O  0.49602297  0.44765061  0.40980915    -0.86100
O356        O  0.54647852  0.41630114  0.49821444    -0.85700
Zr357      Zr  0.51360420  0.45459691  0.46609444     2.84300
O358        O  0.51392703  0.50710837  0.44083292    -1.07700
O359        O  0.49346153  0.45903710  0.51995679    -1.08400
C360        C  0.55937330  0.41615360  0.52735645     1.07000
C361        C  0.47865137  0.46351750  0.38847563     1.07000
C362        C  0.44862232  0.40135607  0.48906005     1.10000
C363        C  0.59022631  0.47892066  0.43208554     1.07700
H364        H  0.44534902  0.46185351  0.45260624     0.33300
O365        O  0.45978369  0.47629847  0.46522215    -1.28600
H366        H  0.57067370  0.48115718  0.49664262     0.33000
O367        O  0.54863024  0.49004019  0.49584035    -1.30300
O368        O  0.43249835  0.58362043  0.44283929    -0.86100
O369        O  0.52699906  0.53212462  0.59695660    -0.87600
O370        O  0.38913054  0.48467435  0.48585154    -0.86200
O371        O  0.54318381  0.56771897  0.41456469    -0.86200
O372        O  0.59926583  0.54215600  0.50455625    -0.85900
O373        O  0.44496725  0.45276885  0.57359979    -0.85700
O374        O  0.42184605  0.56642781  0.55416820    -0.86100
O375        O  0.51370576  0.61553511  0.52060445    -0.85600
O376        O  0.40223803  0.51273174  0.55206595    -0.86600
O377        O  0.55792869  0.59897139  0.48932263    -0.85800
O378        O  0.40338597  0.51192834  0.43788120    -0.86200
O379        O  0.49933947  0.45949063  0.58898310    -0.85900
O380        O  0.58503128  0.51526766  0.55279902    -0.85500
O381        O  0.48880590  0.56116439  0.39908480    -0.86000
O382        O  0.44416952  0.60682327  0.49344547    -0.86200
O383        O  0.49721001  0.57729841  0.58002958    -0.87600
Zr384      Zr  0.46051134  0.52925927  0.44089802     2.83100
Zr385      Zr  0.52880057  0.49394045  0.54983044     2.83500
Zr386      Zr  0.44002533  0.48086257  0.51952890     2.84100
Zr387      Zr  0.54901350  0.54258783  0.47048917     2.83400
Zr388      Zr  0.47588005  0.56792397  0.52518127     2.84200
O389        O  0.52912901  0.54612367  0.52466712    -1.08200
O390        O  0.44054734  0.53337084  0.49490330    -1.07700
C391        C  0.43111254  0.60730908  0.46444937     1.07000
C392        C  0.51444985  0.56117116  0.60132073     1.09600
C393        C  0.38261741  0.49673815  0.45684086     1.07200
C394        C  0.51853556  0.57173860  0.39435427     1.07500
C395        C  0.60547151  0.53129192  0.53402817     1.07100
C396        C  0.46983389  0.44798220  0.59321997     1.06700
C397        C  0.40000107  0.54335932  0.56036353     1.07100
C398        C  0.54230777  0.62017969  0.50705287     1.06600
H399        H  0.46698459  0.51721848  0.57274226     0.33300
O400        O  0.47508732  0.51558016  0.55036372    -1.29300
H401        H  0.49647798  0.58649212  0.46070827     0.33300
O402        O  0.49574233  0.56470919  0.47071008    -1.30600
O403        O  0.07047781  0.94953515  0.04232226    -0.86100
O404        O  0.00888725  0.04269253  0.88982965    -0.86200
O405        O  0.04586198  0.93940327  0.92855721    -0.87900
O406        O  0.09929004  0.02804413  0.96579539    -0.86700
O407        O  0.08317702  0.07374286  0.99536026    -0.86300
O408        O  0.99287924  0.92059174  0.93772461    -0.87600
O409        O  0.05582211  0.01471646  0.90462229    -0.86100
O410        O  0.08603849  0.95487621  0.98796714    -0.85700
Zr411      Zr  0.04970273  0.99234745  0.95972286     2.84300
O412        O  0.02732155  0.04569356  0.95999238    -1.07700
O413        O  0.01713125  0.95821236  0.99344754    -1.08400
C414        C  0.08966345  0.94346425  0.01745725     1.07000
C415        C  0.03829124  0.03160132  0.88411913     1.07000
C416        C  0.02162411  0.91834035  0.92468580     1.10000
C417        C  0.10457318  0.05671145  0.97942189     1.07700
H418        H  0.99558334  0.98217793  0.91615239     0.33300
O419        O  0.99566109  0.99052000  0.93853520    -1.28600
H420        H  0.07212286  0.01432456  0.02262072     0.33000
O421        O  0.04988891  0.01363931  0.01380452    -1.30300
O422        O  0.91879845  0.07010795  0.94427836    -0.86100
O423        O  0.98281727  0.97998838  0.09734657    -0.87600
O424        O  0.93123625  0.96085007  0.92078644    -0.86200
O425        O  0.02182455  0.11637954  0.97753433    -0.86200
O426        O  0.05629332  0.06387043  0.06750835    -0.85900
O427        O  0.96733879  0.90697763  0.00730740    -0.85700
O428        O  0.89139050  0.99324398  0.02270750    -0.86100
O429        O  0.94440350  0.08249677  0.05860848    -0.85600
O430        O  0.90692189  0.94988285  0.98985270    -0.86600
O431        O  0.99744589  0.10231196  0.05139245    -0.85800
O432        O  0.93699545  0.01440997  0.90203087    -0.86200
O433        O  0.00125894  0.92164809  0.05062156    -0.85900
O434        O  0.04940922  0.01053844  0.08683936    -0.85500
O435        O  0.99055011  0.09981887  0.93300861    -0.86000
O436        O  0.89993521  0.06101990  0.99720149    -0.86200
O437        O  0.93635363  0.00908513  0.08316916    -0.87600
Zr438      Zr  0.97323949  0.04359990  0.93947618     2.83100
Zr439      Zr  0.01745800  0.97903947  0.04731755     2.83500
Zr440      Zr  0.96311060  0.95690175  0.97289202     2.84100
Zr441      Zr  0.02699048  0.06695348  0.01379786     2.83400
Zr442      Zr  0.94064942  0.03000778  0.02733034     2.84200
O443        O  0.99488860  0.03214887  0.04739487    -1.08200
O444        O  0.94077740  0.00965525  0.97328398    -1.07700
C445        C  0.89691293  0.07216538  0.96753426     1.07000
C446        C  0.95398025  0.99214453  0.10350938     1.09600
C447        C  0.92531268  0.98468593  0.90008253     1.07200
C448        C  0.00758443  0.12135847  0.94917596     1.07500
C449        C  0.05994518  0.04063567  0.08944634     1.07100
C450        C  0.98349036  0.90077039  0.03419904     1.06700
C451        C  0.88571671  0.96561580  0.00721099     1.07100
C452        C  0.96826567  0.10361103  0.06393401     1.06600
H453        H  0.94968280  0.96207251  0.04085462     0.33300
O454        O  0.96301406  0.97671661  0.02723361    -1.29300
H455        H  0.96342172  0.08709320  0.99334014     0.33300
O456        O  0.97267453  0.06510629  0.99340265    -1.30600
C457        C  0.47273141  0.40531405  0.25423828     0.30200
C458        C  0.45669627  0.43016012  0.27231967    -0.36200
C459        C  0.46792484  0.43495846  0.30486034     0.16200
C460        C  0.49309452  0.41641960  0.31831511     0.22000
C461        C  0.50942446  0.39216815  0.30018893    -0.34300
C462        C  0.49826074  0.38746794  0.26788596     0.16100
O463        O  0.46621159  0.39628618  0.22357023    -0.26300
C464        C  0.48787755  0.37234327  0.21760898     0.05900
C465        C  0.50864654  0.36618179  0.24434428    -0.31200
O466        O  0.49937486  0.42418108  0.34909704    -0.23000
C467        C  0.47825032  0.44820953  0.35574882    -0.03000
C468        C  0.45798675  0.45624614  0.32912098    -0.17400
H469        H  0.43680671  0.44452766  0.26184302     0.20500
H470        H  0.52931991  0.37779177  0.31067394     0.18900
H471        H  0.52864188  0.34863666  0.24596213     0.18900
H472        H  0.43878934  0.47468205  0.32793094     0.14700
C473        C  0.46244255  0.39261801  0.72819301     0.30200
C474        C  0.44121468  0.40869866  0.70571895    -0.36200
C475        C  0.45328892  0.41274834  0.67325995     0.16200
C476        C  0.48417670  0.40189877  0.66410285     0.22000
C477        C  0.50512953  0.38589487  0.68634944    -0.34300
C478        C  0.49305873  0.38175618  0.71839328     0.16100
O479        O  0.45659588  0.38610814  0.75972998    -0.26300
C480        C  0.48378634  0.37061289  0.77003312     0.05900
C481        C  0.50732541  0.36764791  0.74518869    -0.31200
O482        O  0.49223807  0.41085617  0.63398503    -0.23000
C483        C  0.46626762  0.42750418  0.62307245    -0.03000
C484        C  0.44089068  0.42928785  0.64630255    -0.17400
H485        H  0.41732213  0.41787278  0.71314119     0.20500
H486        H  0.52958266  0.37791978  0.67930915     0.18900
H487        H  0.53153241  0.35662737  0.74666143     0.18900
H488        H  0.41830540  0.44333490  0.64474299     0.14700
C489        C  0.99745886  0.82984198  0.08027434     0.30200
C490        C  0.01349290  0.81180332  0.10484057    -0.36200
C491        C  0.99966371  0.78090176  0.11220776     0.16200
C492        C  0.97201236  0.76831469  0.09641080     0.22000
C493        C  0.95606058  0.78634300  0.07127438    -0.34300
C494        C  0.96992260  0.81763720  0.06389947     0.16100
O495        O  0.00554890  0.85994428  0.07111328    -0.26300
C496        C  0.98322647  0.86748174  0.04835874     0.05900
C497        C  0.96033662  0.84208143  0.04245906    -0.31200
O498        O  0.96339689  0.73878201  0.10781968    -0.23000
C499        C  0.98578124  0.73269220  0.13130262    -0.03000
C500        C  0.00901416  0.75808748  0.13481244    -0.17400
H501        H  0.03496010  0.82152342  0.11776710     0.20500
H502        H  0.93423773  0.77688361  0.05877699     0.18900
H503        H  0.93922606  0.84215691  0.02598010     0.18900
H504        H  0.02998030  0.75923361  0.15146123     0.14700
C505        C  0.96167545  0.23830661  0.11741832     0.30200
C506        C  0.94091438  0.21604079  0.10009493    -0.36200
C507        C  0.95129312  0.18285055  0.09890814     0.16200
C508        C  0.98018138  0.17255902  0.11372409     0.22000
C509        C  0.00061334  0.19463230  0.13131768    -0.34300
C510        C  0.99033800  0.22764454  0.13229527     0.16100
O511        O  0.95726708  0.27053864  0.12111387    -0.26300
C512        C  0.98349228  0.28066619  0.13865302     0.05900
C513        C  0.00501342  0.25486871  0.14589913    -0.31200
O514        O  0.98778051  0.14198473  0.10577434    -0.23000
C515        C  0.96335414  0.13204883  0.08593489    -0.03000
C516        C  0.93961924  0.15634379  0.08102826    -0.17400
H517        H  0.91884670  0.22424115  0.08747930     0.20500
H518        H  0.02373995  0.18688098  0.14221348     0.18900
H519        H  0.02795507  0.25599323  0.15967454     0.18900
H520        H  0.91924963  0.15598940  0.06363762     0.14700
C521        C  0.50612339  0.62068564  0.32467522     0.30200
C522        C  0.48705600  0.64159503  0.30488801    -0.36200
C523        C  0.49566689  0.64323185  0.27150428     0.16200
C524        C  0.52162759  0.62593681  0.25824691     0.22000
C525        C  0.54089592  0.60478816  0.27818081    -0.34300
C526        C  0.53209220  0.60292831  0.31190157     0.16100
O527        O  0.50004668  0.61348661  0.35577777    -0.26300
C528        C  0.52262077  0.59116947  0.36376267     0.05900
C529        C  0.54336930  0.58344683  0.33738645    -0.31200
O530        O  0.52490459  0.63139196  0.22611382    -0.23000
C531        C  0.50054820  0.65235980  0.21883705    -0.03000
C532        C  0.48140097  0.66003442  0.24627874    -0.17400
H533        H  0.46622429  0.65496018  0.31471977     0.20500
H534        H  0.56082381  0.59034938  0.26802003     0.18900
H535        H  0.56193107  0.56436470  0.33634167     0.18900
H536        H  0.46014057  0.67600038  0.24753791     0.14700
C537        C  0.51747977  0.58421816  0.68433561     0.30200
C538        C  0.51557633  0.57921304  0.71855922    -0.36200
C539        C  0.50886276  0.60743766  0.73744529     0.16200
C540        C  0.50445783  0.63846803  0.72382972     0.22000
C541        C  0.50656157  0.64355504  0.68964907    -0.34300
C542        C  0.51318955  0.61535069  0.67072916     0.16100
O543        O  0.52081743  0.56094644  0.66173303    -0.26300
C544        C  0.51856234  0.57749754  0.63336401     0.05900
C545        C  0.51413771  0.61141238  0.63751638    -0.31200
O546        O  0.49824628  0.66124904  0.74621939    -0.23000
C547        C  0.49859983  0.64463836  0.77474096    -0.03000
C548        C  0.50521446  0.61096685  0.77049934    -0.17400
H549        H  0.51831930  0.55491335  0.72962373     0.20500
H550        H  0.50267072  0.66765718  0.67852699     0.18900
H551        H  0.50997601  0.63008278  0.61870505     0.18900
H552        H  0.50812348  0.59184181  0.78896835     0.14700
C553        C  0.99853196  0.24268466  0.86793464     0.30200
C554        C  0.99560816  0.20824938  0.86516183    -0.36200
C555        C  0.00258412  0.19015458  0.89385651     0.16200
C556        C  0.01166048  0.20457576  0.92350452     0.22000
C557        C  0.01445038  0.23916320  0.92628929    -0.34300
C558        C  0.00754342  0.25732786  0.89744202     0.16100
O559        O  0.99321896  0.26440126  0.84415016    -0.26300
C560        C  0.99873664  0.29360762  0.85851664     0.05900
C561        C  0.00783267  0.29046036  0.89176931    -0.31200
O562        O  0.01609528  0.18249388  0.94737109    -0.23000
C563        C  0.00978463  0.15370500  0.93250331    -0.03000
C564        C  0.00139016  0.15716967  0.89927223    -0.17400
H565        H  0.98829957  0.19636954  0.84226891     0.20500
H566        H  0.02128053  0.25108760  0.94929478     0.18900
H567        H  0.01451350  0.30965539  0.90921400     0.18900
H568        H  0.99438606  0.13802669  0.88177375     0.14700
C569        C  0.00260233  0.84658683  0.88254863     0.30200
C570        C  0.97923365  0.82324352  0.87170306    -0.36200
C571        C  0.99062149  0.79106961  0.86754808     0.16200
C572        C  0.02290745  0.78229234  0.87338760     0.22000
C573        C  0.04650240  0.80583263  0.88456111    -0.34300
C574        C  0.03498885  0.83837209  0.88899414     0.16100
O575        O  0.99583074  0.87697161  0.89107041    -0.26300
C576        C  0.02391293  0.88902255  0.90348455     0.05900
C577        C  0.04958979  0.86622608  0.90255300    -0.31200
O578        O  0.02805732  0.75072948  0.86668721    -0.23000
C579        C  0.99863789  0.73925283  0.85643067    -0.03000
C580        C  0.97442148  0.76346903  0.85691599    -0.17400
H581        H  0.95364629  0.82964697  0.86752025     0.20500
H582        H  0.07179506  0.79914293  0.88986074     0.18900
H583        H  0.07391544  0.86846502  0.91356676     0.18900
H584        H  0.94879916  0.76130851  0.84941516     0.14700
C585        C  0.09474729  0.42136675  0.88947639     0.30200
C586        C  0.06558734  0.42189079  0.87090871    -0.36200
C587        C  0.05474847  0.39112130  0.85885479     0.16200
C588        C  0.07114239  0.36191287  0.86517311     0.22000
C589        C  0.10100900  0.36161813  0.88240982    -0.34300
C590        C  0.11196293  0.39230863  0.89414990     0.16100
O591        O  0.10821487  0.44664279  0.90523768    -0.26300
C592        C  0.13443310  0.43336669  0.91962074     0.05900
C593        C  0.13821715  0.39986128  0.91339604    -0.31200
O594        O  0.05360972  0.33552350  0.85725940    -0.23000
C595        C  0.02562566  0.34784017  0.84549541    -0.03000
C596        C  0.02565821  0.38245950  0.84455805    -0.17400
H597        H  0.05144740  0.44429560  0.86763662     0.20500
H598        H  0.11370148  0.33880397  0.88809557     0.18900
H599        H  0.15719895  0.38341001  0.92243045     0.18900
H600        H  0.00537452  0.39864619  0.83840213     0.14700
C601        C  0.06227028  0.36179351  0.13091229     0.30200
C602        C  0.08886020  0.38400384  0.13643878    -0.36200
C603        C  0.10335885  0.39832700  0.10806109     0.16200
C604        C  0.09211824  0.39165623  0.07649686     0.22000
C605        C  0.06628977  0.36873826  0.07099371    -0.34300
C606        C  0.05224017  0.35401929  0.09925829     0.16100
O607        O  0.04291392  0.34813527  0.15368912    -0.26300
C608        C  0.02052759  0.33064510  0.13646990     0.05900
C609        C  0.02571307  0.33318366  0.10240483    -0.31200
O610        O  0.10809856  0.40894172  0.05360429    -0.23000
C611        C  0.13023080  0.42666768  0.07062190    -0.03000
C612        C  0.12868465  0.42080711  0.10457655    -0.17400
H613        H  0.09704489  0.39040746  0.16112890     0.20500
H614        H  0.05722766  0.36332510  0.04637464     0.18900
H615        H  0.01010124  0.32355211  0.08280452     0.18900
H616        H  0.14390339  0.43172496  0.12382290     0.14700
C617        C  0.08942484  0.62052169  0.08017551     0.30200
C618        C  0.05984353  0.63714552  0.07460317    -0.36200
C619        C  0.04756975  0.65516980  0.10126571     0.16200
C620        C  0.06239808  0.65612690  0.13197604     0.22000
C621        C  0.09265370  0.63993389  0.13742921    -0.34300
C622        C  0.10562495  0.62251190  0.11020701     0.16100
O623        O  0.10510791  0.60238914  0.05832847    -0.26300
C624        C  0.13221660  0.59292589  0.07411002     0.05900
C625        C  0.13406844  0.60487051  0.10646179    -0.31200
O626        O  0.04468605  0.67274903  0.15390857    -0.23000
C627        C  0.01850052  0.68286271  0.13658045    -0.03000
C628        C  0.01979739  0.67314674  0.10352580    -0.17400
H629        H  0.04719765  0.63609202  0.05101021     0.20500
H630        H  0.10508377  0.64070324  0.16113566     0.18900
H631        H  0.15341513  0.60093658  0.12452448     0.18900
H632        H  0.00148604  0.67712292  0.08439590     0.14700
C633        C  0.04500964  0.64275408  0.87571589     0.30200
C634        C  0.05130221  0.61509649  0.89574146    -0.36200
C635        C  0.08454819  0.60923063  0.90311164     0.16200
C636        C  0.11002166  0.62903198  0.89137789     0.22000
C637        C  0.10367476  0.65661484  0.87090531    -0.34300
C638        C  0.07021951  0.66260929  0.86364603     0.16100
O639        O  0.01560564  0.65404916  0.86821685    -0.26300
C640        C  0.02146661  0.68188192  0.85113118     0.05900
C641        C  0.05533260  0.68798702  0.84693320    -0.31200
O642        O  0.13919662  0.61943800  0.90243751    -0.23000
C643        C  0.13218184  0.59322396  0.92155717    -0.03000
C644        C  0.09853856  0.58579984  0.92277780    -0.17400
H645        H  0.03151406  0.59981442  0.90577018     0.20500
H646        H  0.12333161  0.67276305  0.86203527     0.18900
H647        H  0.06720067  0.70905082  0.83503297     0.18900
H648        H  0.08615746  0.56617236  0.93647362     0.14700
C649        C  0.37196892  0.40781007  0.88031435     0.30200
C650        C  0.37812981  0.38725969  0.85288394    -0.36200
C651        C  0.41152512  0.38007552  0.84665344     0.16200
C652        C  0.43676400  0.39234562  0.86617173     0.22000
C653        C  0.43068339  0.41276471  0.89341103    -0.34300
C654        C  0.39754000  0.41997335  0.89955126     0.16100
O655        O  0.34284579  0.41813056  0.89058978    -0.26300
C656        C  0.35002476  0.43717481  0.91665316     0.05900
C657        C  0.38370954  0.43921878  0.92325926    -0.31200
O658        O  0.46608737  0.38436377  0.85517026    -0.23000
C659        C  0.46025785  0.36691978  0.82773783    -0.03000
C660        C  0.42638735  0.36288266  0.82162843    -0.17400
H661        H  0.35836535  0.37798854  0.83724461     0.20500
H662        H  0.45055363  0.42288586  0.90840693     0.18900
H663        H  0.39617938  0.45291494  0.94270638     0.18900
H664        H  0.41458552  0.35081570  0.80077479     0.14700
C665        C  0.39308084  0.59031310  0.88982577     0.30200
C666        C  0.42326041  0.58453840  0.87435541    -0.36200
C667        C  0.43524902  0.61027047  0.85436540     0.16200
C668        C  0.41910069  0.63990863  0.85008335     0.22000
C669        C  0.38841249  0.64545576  0.86508128    -0.34300
C670        C  0.37614758  0.61948702  0.88492626     0.16100
O671        O  0.37771763  0.56974951  0.90999985    -0.26300
C672        C  0.35038323  0.58572229  0.91787493     0.05900
C673        C  0.34788758  0.61674563  0.90297050    -0.31200
O674        O  0.43654803  0.66152337  0.83256223    -0.23000
C675        C  0.46407781  0.64528894  0.82522287    -0.03000
C676        C  0.46420927  0.61312757  0.83809507    -0.17400
H677        H  0.43674492  0.56179334  0.87810721     0.20500
H678        H  0.37540923  0.66858343  0.86210040     0.18900
H679        H  0.32816824  0.63452422  0.90513818     0.18900
H680        H  0.48403509  0.59539904  0.83822686     0.14700
C681        C  0.42094720  0.64643561  0.14001798     0.30200
C682        C  0.39477641  0.65188083  0.11787546    -0.36200
C683        C  0.37901861  0.62329577  0.10548009     0.16200
C684        C  0.38892552  0.59163508  0.11369619     0.22000
C685        C  0.41457573  0.58625457  0.13623773    -0.34300
C686        C  0.42971582  0.61476263  0.14921377     0.16100
O687        O  0.44083280  0.66927913  0.15267135    -0.26300
C688        C  0.46210111  0.65209927  0.17102144     0.05900
C689        C  0.45606317  0.61798398  0.16974141    -0.31200
O690        O  0.37171182  0.56845773  0.09833171    -0.23000
C691        C  0.35014161  0.58544921  0.08050461    -0.03000
C692        C  0.35322814  0.61964321  0.08405689    -0.17400
H693        H  0.38760304  0.67658284  0.11040994     0.20500
H694        H  0.42247727  0.56154503  0.14285898     0.18900
H695        H  0.47084264  0.59833671  0.18019254     0.18900
H696        H  0.33879177  0.63883703  0.07233405     0.14700
C697        C  0.41605268  0.37882843  0.14581937     0.30200
C698        C  0.38294849  0.38878091  0.14524739    -0.36200
C699        C  0.37227397  0.40407245  0.11597217     0.16200
C700        C  0.39274576  0.40931059  0.08911837     0.22000
C701        C  0.42552017  0.39845328  0.08933624    -0.34300
C702        C  0.43613097  0.38316688  0.11859712     0.16100
O703        O  0.43217257  0.36724625  0.17170900    -0.26300
C704        C  0.46317210  0.36418651  0.16108626     0.05900
C705        C  0.46662050  0.37303044  0.12777304    -0.31200
O706        O  0.37843006  0.42648217  0.06538328    -0.23000
C707        C  0.34827189  0.43197629  0.07706366    -0.03000
C708        C  0.34296241  0.41836010  0.10828583    -0.17400
H709        H  0.36705318  0.38612339  0.16661911     0.20500
H710        H  0.44201318  0.40289534  0.06869618     0.18900
H711        H  0.48883172  0.37385273  0.11288714     0.18900
H712        H  0.32108122  0.41989033  0.12355884     0.14700
C713        C  0.59262487  0.42804573  0.10553267     0.30200
C714        C  0.56663048  0.43407025  0.12725457    -0.36200
C715        C  0.55403617  0.40640454  0.14408697     0.16200
C716        C  0.56540198  0.37462474  0.13941347     0.22000
C717        C  0.59222430  0.36866472  0.11824665    -0.34300
C718        C  0.60540045  0.39664593  0.10180299     0.16100
O719        O  0.60805336  0.45057155  0.08751114    -0.26300
C720        C  0.63144280  0.43362209  0.07235742     0.05900
C721        C  0.63122287  0.39997856  0.08036945    -0.31200
O722        O  0.54681875  0.35205494  0.15460937    -0.23000
C723        C  0.52359012  0.36987265  0.16946061    -0.03000
C724        C  0.52761001  0.40387875  0.16426136    -0.17400
H725        H  0.55652986  0.45860485  0.13041409     0.20500
H726        H  0.60162754  0.34396972  0.11428582     0.18900
H727        H  0.64796763  0.38101041  0.07202368     0.18900
H728        H  0.51113929  0.42353606  0.17151469     0.14700
C729        C  0.60901787  0.61836953  0.10571391     0.30200
C730        C  0.60296360  0.63841784  0.13335784    -0.36200
C731        C  0.56969664  0.64528831  0.13988739     0.16200
C732        C  0.54423427  0.63329427  0.12045713     0.22000
C733        C  0.55025139  0.61363646  0.09255165    -0.34300
C734        C  0.58348804  0.60660295  0.08615009     0.16100
O735        O  0.63806644  0.60740202  0.09621508    -0.26300
C736        C  0.63111290  0.58828004  0.07026962     0.05900
C737        C  0.59750088  0.58695576  0.06278137    -0.31200
O738        O  0.51500678  0.64036014  0.13255192    -0.23000
C739        C  0.52150037  0.65704199  0.16035511    -0.03000
C740        C  0.55535637  0.66133749  0.16574522    -0.17400
H741        H  0.62274173  0.64710975  0.14930077     0.20500
H742        H  0.53032881  0.60351909  0.07762166     0.18900
H743        H  0.58516817  0.57297207  0.04344816     0.18900
H744        H  0.56753632  0.67269900  0.18677649     0.14700
C745        C  0.57043339  0.63738906  0.84277258     0.30200
C746        C  0.60132095  0.62228828  0.84216787    -0.36200
C747        C  0.61353619  0.61208759  0.87280656     0.16200
C748        C  0.59639335  0.61608462  0.90202510     0.22000
C749        C  0.56602772  0.63233429  0.90276930    -0.34300
C750        C  0.55400777  0.64295758  0.87209680     0.16100
O751        O  0.55253629  0.64466117  0.81670545    -0.26300
C752        C  0.52427491  0.65530891  0.82934802     0.05900
C753        C  0.52431927  0.65586580  0.86385041    -0.31200
O754        O  0.61117059  0.60198164  0.92732631    -0.23000
C755        C  0.63829227  0.58947823  0.91405790    -0.03000
C756        C  0.64125796  0.59516840  0.88035771    -0.17400
H757        H  0.61414678  0.61735318  0.81926487     0.20500
H758        H  0.55210199  0.63516686  0.92539998     0.18900
H759        H  0.50408021  0.66163034  0.88026670     0.18900
H760        H  0.66042218  0.58689975  0.86374751     0.14700
C761        C  0.59250274  0.43231392  0.87838086     0.30200
C762        C  0.56521810  0.43796980  0.85784801    -0.36200
C763        C  0.55165074  0.40993737  0.84226842     0.16200
C764        C  0.56339162  0.37832561  0.84722890     0.22000
C765        C  0.59140884  0.37278485  0.86695849    -0.34300
C766        C  0.60549032  0.40097684  0.88199521     0.16100
O767        O  0.60857015  0.45487124  0.89586871    -0.26300
C768        C  0.63255782  0.43788187  0.91036151     0.05900
C769        C  0.63206169  0.40430734  0.90250561    -0.31200
O770        O  0.54426346  0.35535508  0.83357181    -0.23000
C771        C  0.52019495  0.37250939  0.81913436    -0.03000
C772        C  0.52425144  0.40672309  0.82313550    -0.17400
H773        H  0.55484269  0.46241860  0.85478768     0.20500
H774        H  0.60100189  0.34815461  0.87102953     0.18900
H775        H  0.64868943  0.38520614  0.91095118     0.18900
H776        H  0.50750503  0.42609916  0.81561022     0.14700
C777        C  0.87205254  0.39339154  0.10237403     0.30200
C778        C  0.87827096  0.36562115  0.12259814    -0.36200
C779        C  0.91175649  0.35852241  0.12845218     0.16200
C780        C  0.93705769  0.37768343  0.11548548     0.22000
C781        C  0.93091405  0.40537089  0.09553248    -0.34300
C782        C  0.89766513  0.41224994  0.08946211     0.16100
O783        O  0.84283189  0.40386837  0.09242017    -0.26300
C784        C  0.84999032  0.42964928  0.07283508     0.05900
C785        C  0.88374936  0.43596121  0.07017269    -0.31200
O786        O  0.96637883  0.36602531  0.12253520    -0.23000
C787        C  0.96040241  0.33857962  0.14011222    -0.03000
C788        C  0.92654299  0.33292738  0.14492063    -0.17400
H789        H  0.85846333  0.35021013  0.13237149     0.20500
H790        H  0.95077104  0.42002959  0.08475712     0.18900
H791        H  0.89623696  0.45489128  0.05562182     0.18900
H792        H  0.91461819  0.31228778  0.15748381     0.14700
C793        C  0.89547642  0.40705685  0.91225787     0.30200
C794        C  0.92657269  0.39318297  0.91694804    -0.36200
C795        C  0.93811478  0.37376687  0.89098377     0.16200
C796        C  0.92093535  0.36891009  0.86189708     0.22000
C797        C  0.88944953  0.38250124  0.85733401    -0.34300
C798        C  0.87741440  0.40140175  0.88375763     0.16100
O799        O  0.87986385  0.42558539  0.93369375    -0.26300
C800        C  0.85114996  0.43153202  0.91909153     0.05900
C801        C  0.84808211  0.41708793  0.88797452    -0.31200
O802        O  0.93769469  0.35132997  0.84023999    -0.23000
C803        C  0.96575131  0.34441762  0.85599071    -0.03000
C804        C  0.96692180  0.35766871  0.88783952    -0.17400
H805        H  0.94074323  0.39715223  0.93935500     0.20500
H806        H  0.87538934  0.37865852  0.83485079     0.18900
H807        H  0.82729364  0.41795363  0.87111458     0.18900
H808        H  0.98710245  0.35762150  0.90538465     0.14700
C809        C  0.87977557  0.62153842  0.88878824     0.30200
C810        C  0.89094675  0.63585048  0.85904294    -0.36200
C811        C  0.91787295  0.65804093  0.86166327     0.16200
C812        C  0.93225706  0.66609560  0.89154688     0.22000
C813        C  0.92123291  0.65165581  0.92122587    -0.34300
C814        C  0.89496342  0.62881395  0.91852374     0.16100
O815        O  0.85502680  0.60016346  0.89216615    -0.26300
C816        C  0.85496533  0.59306591  0.92434257     0.05900
C817        C  0.87937018  0.60999200  0.94195265    -0.31200
O818        O  0.95853712  0.68539394  0.88816034    -0.23000
C819        C  0.96166368  0.68960677  0.85558346    -0.03000
C820        C  0.93668897  0.67313471  0.83788637    -0.17400
H821        H  0.87997718  0.62946362  0.83543948     0.20500
H822        H  0.93308666  0.65700443  0.94465802     0.18900
H823        H  0.88401639  0.60946761  0.96831978     0.18900
H824        H  0.93421407  0.67017018  0.81142440     0.14700
C825        C  0.87015964  0.62585586  0.10206074     0.30200
C826        C  0.87704799  0.65610370  0.11774118    -0.36200
C827        C  0.90956621  0.66032285  0.12895552     0.16200
C828        C  0.93317659  0.63619633  0.12542171     0.22000
C829        C  0.92625144  0.60601141  0.10999982    -0.34300
C830        C  0.89412824  0.60206330  0.09821320     0.16100
O831        O  0.84214520  0.61730397  0.08788519    -0.26300
C832        C  0.84862941  0.58797688  0.07463057     0.05900
C833        C  0.88053211  0.57721472  0.08013607    -0.31200
O834        O  0.96261965  0.64633782  0.13443130    -0.23000
C835        C  0.95845353  0.67771974  0.14335118    -0.03000
C836        C  0.92550975  0.68755071  0.14111598    -0.17400
H837        H  0.85884206  0.67546327  0.11966375     0.20500
H838        H  0.94510060  0.58763507  0.10593931     0.18900
H839        H  0.89201906  0.55461584  0.07177879     0.18900
H840        H  0.91530923  0.71194818  0.14479247     0.14700
C841        C  0.06338288  0.03896906  0.80116866     0.30200
C842        C  0.06056189  0.03595041  0.76660702    -0.36200
C843        C  0.09046285  0.03265708  0.74919224     0.16200
C844        C  0.12089457  0.03256928  0.76463038     0.22000
C845        C  0.12375954  0.03649621  0.79881285    -0.34300
C846        C  0.09407443  0.03948153  0.81616959     0.16100
O847        O  0.03889247  0.03825910  0.82294185    -0.26300
C848        C  0.05439772  0.03829513  0.85207400     0.05900
C849        C  0.08862884  0.03937617  0.84913836    -0.31200
O850        O  0.14542716  0.02663333  0.74422138    -0.23000
C851        C  0.13080564  0.02277342  0.71498537    -0.03000
C852        C  0.09650893  0.02685417  0.71663249    -0.17400
H853        H  0.03677387  0.03455404  0.75436036     0.20500
H854        H  0.14745142  0.03558627  0.81124666     0.18900
H855        H  0.10693623  0.03779731  0.86863110     0.18900
H856        H  0.07853772  0.02522543  0.69684548     0.14700
C857        C  0.07864107  0.04238599  0.17284166     0.30200
C858        C  0.07113006  0.03628682  0.20618626    -0.36200
C859        C  0.09807339  0.02999915  0.22697767     0.16200
C860        C  0.13021761  0.02962998  0.21576104     0.22000
C861        C  0.13775712  0.03560645  0.18230215    -0.34300
C862        C  0.11076052  0.04214127  0.16144166     0.16100
O863        O  0.05694950  0.04565435  0.14881606    -0.26300
C864        C  0.07514627  0.04817362  0.12152150     0.05900
C865        C  0.10892756  0.04602084  0.12785314    -0.31200
O866        O  0.15156284  0.02339482  0.23960387    -0.23000
C867        C  0.13292308  0.01968367  0.26661476    -0.03000
C868        C  0.09930414  0.02348096  0.25999452    -0.17400
H869        H  0.04592222  0.03576735  0.21514156     0.20500
H870        H  0.16284990  0.03476487  0.17311877     0.18900
H871        H  0.12880446  0.04398932  0.11011026     0.18900
H872        H  0.07883599  0.02246296  0.27718099     0.14700
C873        C  0.20739174  0.52780439  0.26031487     0.30200
C874        C  0.22455444  0.54432272  0.23480990    -0.36200
C875        C  0.22523215  0.52798146  0.20418438     0.16200
C876        C  0.21030110  0.49742123  0.19916273     0.22000
C877        C  0.19269285  0.48128450  0.22445861    -0.34300
C878        C  0.19173782  0.49775262  0.25489574     0.16100
O879        O  0.20499612  0.53756966  0.29131762    -0.26300
C880        C  0.18736990  0.51354449  0.30607453     0.05900
C881        C  0.17793271  0.48843057  0.28414339    -0.31200
O882        O  0.21367615  0.48671363  0.16861577    -0.23000
C883        C  0.23073778  0.51082230  0.15366181    -0.03000
C884        C  0.23859413  0.53720068  0.17456732    -0.17400
H885        H  0.23670422  0.56808511  0.23863428     0.20500
H886        H  0.18063759  0.45746730  0.22068701     0.18900
H887        H  0.16414089  0.46580059  0.28894456     0.18900
H888        H  0.25144357  0.56014916  0.16854623     0.14700
C889        C  0.24727084  0.50226726  0.40144863     0.30200
C890        C  0.26231720  0.50137635  0.43290906    -0.36200
C891        C  0.29664132  0.49591078  0.43326545     0.16200
C892        C  0.31444321  0.49156522  0.40453673     0.22000
C893        C  0.29935852  0.49176391  0.37342431    -0.34300
C894        C  0.26543279  0.49751560  0.37310455     0.16100
O895        O  0.21601714  0.50872257  0.39490242    -0.26300
C896        C  0.21433306  0.50860435  0.36188369     0.05900
C897        C  0.24450943  0.50130131  0.34719843    -0.31200
O898        O  0.34636728  0.48990181  0.40978390    -0.23000
C899        C  0.34952937  0.49264166  0.44234516    -0.03000
C900        C  0.31935982  0.49631458  0.45852375    -0.17400
H901        H  0.24849500  0.50576892  0.45533439     0.20500
H902        H  0.31342607  0.48901561  0.35087010     0.18900
H903        H  0.25039642  0.49901197  0.32122101     0.18900
H904        H  0.31508733  0.50100590  0.48450202     0.14700
C905        C  0.78293995  0.49274761  0.25704900     0.30200
C906        C  0.77316012  0.47361046  0.22955876    -0.36200
C907        C  0.76823048  0.49098720  0.19972956     0.16200
C908        C  0.77245788  0.52490191  0.19709559     0.22000
C909        C  0.78249776  0.54397388  0.22453358    -0.34300
C910        C  0.78762725  0.52655859  0.25429224     0.16100
O911        O  0.78776437  0.48181540  0.28755259    -0.26300
C912        C  0.79630326  0.50887025  0.30475288     0.05900
C913        C  0.79640777  0.53746651  0.28504318    -0.31200
O914        O  0.76609031  0.53609169  0.16694363    -0.23000
C915        C  0.75762749  0.50897585  0.14988675    -0.03000
C916        C  0.75873711  0.48019880  0.16910782    -0.17400
H917        H  0.76934781  0.44703985  0.23136847     0.20500
H918        H  0.78587681  0.57060562  0.22286143     0.18900
H919        H  0.80091290  0.56288357  0.29252853     0.18900
H920        H  0.75346126  0.45494194  0.16153800     0.14700
C921        C  0.71553312  0.49268377  0.36155195     0.30200
C922        C  0.68181284  0.48796979  0.35435240    -0.36200
C923        C  0.66146538  0.47865392  0.38097503     0.16200
C924        C  0.67346282  0.47448749  0.41262588     0.22000
C925        C  0.70729718  0.47907823  0.41983065    -0.34300
C926        C  0.72765596  0.48843525  0.39312972     0.16100
O927        O  0.73876522  0.50123768  0.34022211    -0.26300
C928        C  0.76646469  0.50269224  0.35814611     0.05900
C929        C  0.76083979  0.49515933  0.39146914    -0.31200
O930        O  0.64953532  0.46990654  0.43440731    -0.23000
C931        C  0.62180282  0.47044278  0.41651330    -0.03000
C932        C  0.62784608  0.47589849  0.38306360    -0.17400
H933        H  0.67199154  0.49204073  0.32978409     0.20500
H934        H  0.71687256  0.47661197  0.44471391     0.18900
H935        H  0.77884344  0.49374598  0.41123917     0.18900
H936        H  0.60997401  0.48114918  0.36385219     0.14700
C937        C  0.85479503  0.00206879  0.77495919     0.30200
C938        C  0.85066468  0.00954654  0.80859540    -0.36200
C939        C  0.87214016  0.99356235  0.83068635     0.16200
C940        C  0.89602504  0.97171227  0.82043228     0.22000
C941        C  0.90015219  0.96435398  0.78680290    -0.34300
C942        C  0.87878657  0.98042363  0.76476002     0.16100
O943        O  0.83788490  0.01455743  0.74999863    -0.26300
C944        C  0.85092996  0.00051396  0.72323789     0.05900
C945        C  0.87710332  0.97957966  0.73120120    -0.31200
O946        O  0.91582545  0.96255338  0.84471823    -0.23000
C947        C  0.90439217  0.97848070  0.87101797    -0.03000
C948        C  0.87725821  0.99817210  0.86365418    -0.17400
H949        H  0.83262978  0.02730653  0.81687457     0.20500
H950        H  0.91946185  0.94811610  0.77829945     0.18900
H951        H  0.89303711  0.96591558  0.71482243     0.18900
H952        H  0.86537722  0.01600839  0.87954324     0.14700
C953        C  0.89968559  0.98675483  0.16986194     0.30200
C954        C  0.86872532  0.99060494  0.18459110    -0.36200
C955        C  0.86859692  0.99244869  0.21902837     0.16200
C956        C  0.89691685  0.99029220  0.23780817     0.22000
C957        C  0.92800693  0.98547182  0.22307145    -0.34300
C958        C  0.92824353  0.98393927  0.18834467     0.16100
O959        O  0.90548249  0.98845507  0.13804393    -0.26300
C960        C  0.93812507  0.98637289  0.13562756     0.05900
C961        C  0.95383053  0.98316859  0.16615695    -0.31200
O962        O  0.89117472  0.99543391  0.26942241    -0.23000
C963        C  0.85877882  0.00126132  0.27096509    -0.03000
C964        C  0.84347952  0.99907279  0.24010494    -0.17400
H965        H  0.84648104  0.99375805  0.17005700     0.20500
H966        H  0.95052072  0.98463213  0.23753331     0.18900
H967        H  0.98009718  0.98296532  0.17131140     0.18900
H968        H  0.81781786  0.00264326  0.23364765     0.14700
C969        C  0.22058695  0.49778012  0.79430484     0.30200
C970        C  0.21633520  0.47862679  0.76549296    -0.36200
C971        C  0.20657551  0.49583040  0.73677873     0.16200
C972        C  0.20132544  0.52954974  0.73630086     0.22000
C973        C  0.20579493  0.54873640  0.76505184    -0.34300
C974        C  0.21562244  0.53157149  0.79375231     0.16100
O975        O  0.22889644  0.48675330  0.82406361    -0.26300
C976        C  0.22955400  0.51391543  0.84288684     0.05900
C977        C  0.22154538  0.54248221  0.82518128    -0.31200
O978        O  0.19309917  0.54063026  0.70654641    -0.23000
C979        C  0.19255130  0.51358293  0.68750978    -0.03000
C980        C  0.20128751  0.48510713  0.70519895    -0.17400
H981        H  0.22034286  0.45212541  0.76544816     0.20500
H982        H  0.20197764  0.57526715  0.76503767     0.18900
H983        H  0.21947026  0.56756246  0.83438617     0.18900
H984        H  0.20434612  0.46021430  0.69580805     0.14700
C985        C  0.27466061  0.52967581  0.63166109     0.30200
C986        C  0.30854582  0.53365533  0.63887038    -0.36200
C987        C  0.32908561  0.54286093  0.61225942     0.16200
C988        C  0.31705544  0.54775160  0.58072464     0.22000
C989        C  0.28320931  0.54368945  0.57351136    -0.34300
C990        C  0.26272725  0.53433946  0.60007791     0.16100
O991        O  0.25110182  0.52134418  0.65282772    -0.26300
C992        C  0.22348227  0.52027751  0.63465268     0.05900
C993        C  0.22949387  0.52801249  0.60146915    -0.31200
O994        O  0.34087586  0.55266598  0.55892265    -0.23000
C995        C  0.36868098  0.55153259  0.57659378    -0.03000
C996        C  0.36277182  0.54526573  0.60998358    -0.17400
H997        H  0.31831328  0.52919230  0.66339223     0.20500
H998        H  0.27366808  0.54661569  0.54866646     0.18900
H999        H  0.21168167  0.52977882  0.58155926     0.18900
H1000       H  0.38071883  0.53954294  0.62898616     0.14700
C1001       C  0.76756836  0.49735791  0.79121840     0.30200
C1002       C  0.76543818  0.48002805  0.76121099    -0.36200
C1003       C  0.77998785  0.49559894  0.73365892     0.16200
C1004       C  0.79630568  0.52576357  0.73551873     0.22000
C1005       C  0.79806246  0.54338454  0.76546615    -0.34300
C1006       C  0.78281648  0.52813533  0.79292205     0.16100
O1007       O  0.75547431  0.48742253  0.81997881    -0.26300
C1008       C  0.76248549  0.51242086  0.84035511     0.05900
C1009       C  0.77942695  0.53847313  0.82481686    -0.31200
O1010       O  0.80812100  0.53560541  0.70659913    -0.23000
C1011       C  0.79896926  0.51157926  0.68568757    -0.03000
C1012       C  0.78090875  0.48633866  0.70134233    -0.17400
H1013       H  0.75295097  0.45619894  0.75938438     0.20500
H1014       H  0.81010768  0.56745414  0.76715625     0.18900
H1015       H  0.78842935  0.56141392  0.83563623     0.18900
H1016       H  0.76965658  0.46453498  0.69027552     0.14700
C1017       C  0.74004658  0.52738945  0.59003994     0.30200
C1018       C  0.72516565  0.52880629  0.55853533    -0.36200
C1019       C  0.69094042  0.53472836  0.55806291     0.16200
C1020       C  0.67298343  0.53896565  0.58671825     0.22000
C1021       C  0.68790742  0.53818617  0.61791396    -0.34300
C1022       C  0.72179274  0.53200496  0.61834316     0.16100
O1023       O  0.77118913  0.52039937  0.59663182    -0.26300
C1024       C  0.77280367  0.52009771  0.62965415     0.05900
C1025       C  0.74258823  0.52754769  0.64427838    -0.31200
O1026       O  0.64104026  0.54028203  0.58132432    -0.23000
C1027       C  0.63810700  0.53729339  0.54877108    -0.03000
C1028       C  0.66838296  0.53410832  0.53273401    -0.17400
H1029       H  0.73900009  0.52430601  0.53613924     0.20500
H1030       H  0.67371717  0.54063538  0.64042802     0.18900
H1031       H  0.73655034  0.52940524  0.67025361     0.18900
H1032       H  0.67279681  0.52899924  0.50685816     0.14700
C1033       C  0.97243415  0.30091964  0.23657324     0.30200
C1034       C  0.95288491  0.29280275  0.26427283    -0.36200
C1035       C  0.97018227  0.28362785  0.29303704     0.16200
C1036       C  0.00425071  0.28231947  0.29430389     0.22000
C1037       C  0.02360201  0.29004331  0.26659496    -0.34300
C1038       C  0.00639199  0.29957145  0.23810570     0.16100
O1039       O  0.96173552  0.30903394  0.20676661    -0.26300
C1040       C  0.98924870  0.31375236  0.18898395     0.05900
C1041       C  0.01771032  0.30758006  0.20751068    -0.31200
O1042       O  0.01550616  0.27468243  0.32393746    -0.23000
C1043       C  0.98835491  0.27095587  0.34208780    -0.03000
C1044       C  0.95935478  0.27598818  0.32409438    -0.17400
H1045       H  0.92615979  0.29372141  0.26350664     0.20500
H1046       H  0.05032077  0.28907946  0.26731334     0.18900
H1047       H  0.04308660  0.30656820  0.19924183     0.18900
H1048       H  0.93411435  0.27553919  0.33297527     0.14700
C1049       C  0.97617370  0.28637636  0.69904520     0.30200
C1050       C  0.95707562  0.28969495  0.72791543    -0.36200
C1051       C  0.97355283  0.30299853  0.75562318     0.16200
C1052       C  0.00627548  0.31290887  0.75463217     0.22000
C1053       C  0.02534630  0.30943349  0.72598115    -0.34300
C1054       C  0.00913355  0.29558058  0.69860706     0.16100
O1055       O  0.96597145  0.27479681  0.67016458    -0.26300
C1056       C  0.99293616  0.27621639  0.65122028     0.05900
C1057       C  0.02050101  0.28882587  0.66775731    -0.31200
O1058       O  0.01713058  0.32370901  0.78335044    -0.23000
C1059       C  0.99120374  0.32070157  0.80350905    -0.03000
C1060       C  0.96337362  0.30754232  0.78750555    -0.17400
H1061       H  0.93134647  0.28206231  0.72882927     0.20500
H1062       H  0.05122788  0.31655473  0.72526032     0.18900
H1063       H  0.04508162  0.29341846  0.65808325     0.18900
H1064       H  0.93959090  0.30107542  0.79807778     0.14700
C1065       C  0.87530190  0.39043572  0.39217567     0.30200
C1066       C  0.84699710  0.39695715  0.37294552    -0.36200
C1067       C  0.84110663  0.43058713  0.36578810     0.16200
C1068       C  0.86174004  0.45566751  0.37685881     0.22000
C1069       C  0.88992231  0.44918856  0.39576036    -0.34300
C1070       C  0.89569421  0.41587464  0.40298889     0.16100
O1071       O  0.88516849  0.36116263  0.40286328    -0.26300
C1072       C  0.91207638  0.36821386  0.42077343     0.05900
C1073       C  0.91972131  0.40186237  0.42165853    -0.31200
O1074       O  0.85096346  0.48527761  0.36928353    -0.23000
C1075       C  0.82289318  0.47978897  0.35280529    -0.03000
C1076       C  0.81559518  0.44589104  0.34972973    -0.17400
H1077       H  0.83042529  0.37733275  0.36479016     0.20500
H1078       H  0.90581660  0.46892189  0.40493502     0.18900
H1079       H  0.93983038  0.41423061  0.43455523     0.18900
H1080       H  0.79387280  0.43440400  0.33881112     0.14700
C1081       C  0.84507217  0.45290529  0.59957986     0.30200
C1082       C  0.86183259  0.44239292  0.57125082    -0.36200
C1083       C  0.87957361  0.41293959  0.57445266     0.16200
C1084       C  0.88016046  0.39453302  0.60327929     0.22000
C1085       C  0.86376927  0.40541910  0.63183695    -0.34300
C1086       C  0.84656611  0.43537458  0.62881761     0.16100
O1087       O  0.82875467  0.48074257  0.60247820    -0.26300
C1088       C  0.81999795  0.48186226  0.63424946     0.05900
C1089       C  0.83053050  0.45393805  0.65181792    -0.31200
O1090       O  0.89787207  0.36734521  0.60038968    -0.23000
C1091       C  0.90923753  0.36887101  0.56951572    -0.03000
C1092       C  0.89881029  0.39678448  0.55234692    -0.17400
H1093       H  0.86166905  0.45661701  0.54850459     0.20500
H1094       H  0.86485660  0.39182736  0.65492300     0.18900
H1095       H  0.82875819  0.44873396  0.67798498     0.18900
H1096       H  0.90413818  0.40374293  0.52701013     0.14700
C1097       C  0.13145969  0.45039870  0.62834622     0.30200
C1098       C  0.09951613  0.43615903  0.62676016    -0.36200
C1099       C  0.09456181  0.41098814  0.60316846     0.16200
C1100       C  0.11958782  0.39998061  0.58301720     0.22000
C1101       C  0.15155736  0.41439976  0.58450296    -0.34300
C1102       C  0.15633756  0.44007525  0.60771340     0.16100
O1103       O  0.14057959  0.47584408  0.64687227    -0.26300
C1104       C  0.17169784  0.48273765  0.63783012     0.05900
C1105       C  0.18292145  0.46071344  0.61372110    -0.31200
O1106       O  0.10954521  0.37590682  0.56297511    -0.23000
C1107       C  0.07746266  0.37185237  0.56988026    -0.03000
C1108       C  0.06681217  0.39310037  0.59468124    -0.17400
H1109       H  0.07962469  0.44476658  0.64228023     0.20500
H1110       H  0.17115594  0.40661738  0.56818830     0.18900
H1111       H  0.20641678  0.46100084  0.60098091     0.18900
H1112       H  0.04234352  0.39466467  0.60531487     0.14700
C1113       C  0.10738117  0.39539955  0.39430290     0.30200
C1114       C  0.13584857  0.40274609  0.37590242    -0.36200
C1115       C  0.14130271  0.43633794  0.36868598     0.16200
C1116       C  0.12020283  0.46092111  0.37880823     0.22000
C1117       C  0.09177917  0.45363221  0.39725729    -0.34300
C1118       C  0.08638633  0.42008348  0.40457425     0.16100
O1119       O  0.09780422  0.36575862  0.40440348    -0.26300
C1120       C  0.07043046  0.37164070  0.42140910     0.05900
C1121       C  0.06213956  0.40497957  0.42242685    -0.31200
O1122       O  0.13078953  0.49071662  0.37052188    -0.23000
C1123       C  0.15908441  0.48538204  0.35469210    -0.03000
C1124       C  0.16683207  0.45181116  0.35297307    -0.17400
H1125       H  0.15279013  0.38368942  0.36820824     0.20500
H1126       H  0.07536760  0.47281235  0.40577986     0.18900
H1127       H  0.04145481  0.41638285  0.43476670     0.18900
H1128       H  0.18873052  0.44068299  0.34266021     0.14700
C1129       C  0.09765247  0.11061847  0.58612572     0.30200
C1130       C  0.10964233  0.07823173  0.58655911    -0.36200
C1131       C  0.12599750  0.06880944  0.61555106     0.16200
C1132       C  0.13034013  0.08972925  0.64220759     0.22000
C1133       C  0.11952322  0.12250396  0.64124554    -0.34300
C1134       C  0.10298652  0.13186933  0.61239568     0.16100
O1135       O  0.07925376  0.12384200  0.56279610    -0.26300
C1136       C  0.07316074  0.15399662  0.57425710     0.05900
C1137       C  0.08735387  0.16040426  0.60489803    -0.31200
O1138       O  0.14134753  0.07427147  0.66860871    -0.23000
C1139       C  0.14391835  0.04289577  0.65894123    -0.03000
C1140       C  0.13576876  0.03846173  0.62562000    -0.17400
H1141       H  0.10485085  0.06101353  0.56657114     0.20500
H1142       H  0.12193773  0.13887400  0.66230633     0.18900
H1143       H  0.08562938  0.18258441  0.61980920     0.18900
H1144       H  0.13431437  0.01567207  0.61157079     0.14700
C1145       C  0.86046272  0.08344811  0.64877775     0.30200
C1146       C  0.85562961  0.11197023  0.62926927    -0.36200
C1147       C  0.88354110  0.12421367  0.61214726     0.16200
C1148       C  0.91399934  0.10920625  0.61369242     0.22000
C1149       C  0.91910010  0.08153653  0.63409764    -0.34300
C1150       C  0.89142255  0.06975518  0.65168152     0.16100
O1151       O  0.83716973  0.06514197  0.66333588    -0.26300
C1152       C  0.85358727  0.03961032  0.67620391     0.05900
C1153       C  0.88760514  0.04207097  0.67049946    -0.31200
O1154       O  0.93627914  0.12379646  0.59447361    -0.23000
C1155       C  0.92003264  0.14886563  0.58077510    -0.03000
C1156       C  0.88723413  0.15046970  0.59106403    -0.17400
H1157       H  0.83156048  0.12311522  0.62662423     0.20500
H1158       H  0.94279803  0.06941565  0.63546202     0.18900
H1159       H  0.90616591  0.02368845  0.67588366     0.18900
H1160       H  0.86883776  0.16843918  0.58397242     0.14700
C1161       C  0.86313730  0.08475104  0.34441228     0.30200
C1162       C  0.85756392  0.11363725  0.36287461    -0.36200
C1163       C  0.88503454  0.12647990  0.38018483     0.16200
C1164       C  0.91571216  0.11180294  0.37952217     0.22000
C1165       C  0.92148249  0.08374520  0.36028010    -0.34300
C1166       C  0.89420211  0.07110990  0.34293853     0.16100
O1167       O  0.84049418  0.06618607  0.32940867    -0.26300
C1168       C  0.85746378  0.04043087  0.31802116     0.05900
C1169       C  0.89111109  0.04278943  0.32541997    -0.31200
O1170       O  0.93735985  0.12652444  0.39912744    -0.23000
C1171       C  0.92047058  0.15120517  0.41232210    -0.03000
C1172       C  0.88793510  0.15271260  0.40116804    -0.17400
H1173       H  0.83330974  0.12451985  0.36472699     0.20500
H1174       H  0.94530736  0.07181203  0.35984917     0.18900
H1175       H  0.91007623  0.02455133  0.32138512     0.18900
H1176       H  0.86913301  0.17031124  0.40796837     0.14700
C1177       C  0.09363115  0.12893923  0.37685985     0.30200
C1178       C  0.11166297  0.12299783  0.34780411    -0.36200
C1179       C  0.12067863  0.08994306  0.34219787     0.16200
C1180       C  0.11242191  0.06460956  0.36372186     0.22000
C1181       C  0.09430477  0.07046134  0.39265146    -0.34300
C1182       C  0.08524737  0.10342967  0.39819944     0.16100
O1183       O  0.08262857  0.15789377  0.38696059    -0.26300
C1184       C  0.06687534  0.15081085  0.41506753     0.05900
C1185       C  0.06756998  0.11723541  0.42317375    -0.31200
O1186       O  0.12190778  0.03546006  0.35303675    -0.23000
C1187       C  0.13647316  0.04178348  0.32404246    -0.03000
C1188       C  0.13665389  0.07556329  0.31625713    -0.17400
H1189       H  0.11791928  0.14271305  0.33061418     0.20500
H1190       H  0.08733965  0.05058843  0.40940701     0.18900
H1191       H  0.05675483  0.10487243  0.44443243     0.18900
H1192       H  0.14570674  0.08743358  0.29394907     0.14700
C1193       C  0.97769039  0.74119243  0.29202431     0.30200
C1194       C  0.95816479  0.73859418  0.26347111    -0.36200
C1195       C  0.97384365  0.72587906  0.23540931     0.16200
C1196       C  0.00626325  0.71573080  0.23535090     0.22000
C1197       C  0.02591752  0.71856109  0.26390938    -0.34300
C1198       C  0.01042846  0.73191044  0.29190227     0.16100
O1199       O  0.96796314  0.75210113  0.32112930    -0.26300
C1200       C  0.99498414  0.75035233  0.33984095     0.05900
C1201       C  0.02216261  0.73801754  0.32291617    -0.31200
O1202       O  0.01573364  0.70464878  0.20613523    -0.23000
C1203       C  0.98903437  0.70797936  0.18708997    -0.03000
C1204       C  0.96242864  0.72145512  0.20420183    -0.17400
H1205       H  0.93257846  0.74615114  0.26308754     0.20500
H1206       H  0.05154195  0.71115057  0.26422136     0.18900
H1207       H  0.04666954  0.73318681  0.33243750     0.18900
H1208       H  0.93823254  0.72778624  0.19498550     0.14700
C1209       C  0.00794967  0.71694590  0.75490130     0.30200
C1210       C  0.02707395  0.71859181  0.72595446    -0.36200
C1211       C  0.01184694  0.73275996  0.69811345     0.16200
C1212       C  0.97980223  0.74410489  0.69848451     0.22000
C1213       C  0.96087825  0.74299870  0.72760341    -0.34300
C1214       C  0.97629877  0.72919092  0.75553593     0.16100
O1215       O  0.01752347  0.70530677  0.78393776    -0.26300
C1216       C  0.99168651  0.71009981  0.80374328     0.05900
C1217       C  0.96551304  0.72536898  0.78718779    -0.31200
O1218       O  0.96998377  0.75484954  0.66917047    -0.23000
C1219       C  0.99630441  0.75083637  0.64985726    -0.03000
C1220       C  0.02309873  0.73737754  0.66667019    -0.17400
H1221       H  0.05211614  0.70947693  0.72518783     0.20500
H1222       H  0.93585580  0.75217124  0.72841749     0.18900
H1223       H  0.94209057  0.73318330  0.79720778     0.18900
H1224       H  0.04694037  0.73065206  0.65677418     0.14700
C1225       C  0.12049777  0.63339835  0.40180257     0.30200
C1226       C  0.15209150  0.61975827  0.39857933    -0.36200
C1227       C  0.15434687  0.59216732  0.37766811     0.16200
C1228       C  0.12761093  0.57955483  0.36039111     0.22000
C1229       C  0.09610530  0.59325361  0.36348785    -0.34300
C1230       C  0.09361168  0.62010357  0.38517129     0.16100
O1231       O  0.11222182  0.65786139  0.42160234    -0.26300
C1232       C  0.07958711  0.65963269  0.41801816     0.05900
C1233       C  0.06663190  0.63681539  0.39574481    -0.31200
O1234       O  0.13455834  0.55209159  0.34450264    -0.23000
C1235       C  0.16595110  0.54621740  0.35235063    -0.03000
C1236       C  0.17971721  0.57094332  0.37244100    -0.17400
H1237       H  0.17306246  0.62898907  0.41260711     0.20500
H1238       H  0.07470296  0.58260106  0.35119323     0.18900
H1239       H  0.04106324  0.63307230  0.38857173     0.18900
H1240       H  0.20413253  0.57214114  0.38337410     0.14700
C1241       C  0.11609039  0.63269274  0.59622228     0.30200
C1242       C  0.14326714  0.62628962  0.61713380    -0.36200
C1243       C  0.14920226  0.59264607  0.62439359     0.16200
C1244       C  0.12963904  0.56743805  0.61183691     0.22000
C1245       C  0.10271276  0.57376382  0.59106157    -0.34300
C1246       C  0.09689953  0.60709676  0.58377236     0.16100
O1247       O  0.10583899  0.66205805  0.58602900    -0.26300
C1248       C  0.07988559  0.65493926  0.56675337     0.05900
C1249       C  0.07336009  0.62110306  0.56441742    -0.31200
O1250       O  0.14010143  0.53789148  0.62017534    -0.23000
C1251       C  0.16695635  0.54349511  0.63859522    -0.03000
C1252       C  0.17373176  0.57746064  0.64217161    -0.17400
H1253       H  0.15883440  0.64606111  0.62674372     0.20500
H1254       H  0.08760334  0.55392833  0.58085759     0.18900
H1255       H  0.05387609  0.60865044  0.55067575     0.18900
H1256       H  0.19456231  0.58908227  0.65457173     0.14700
C1257       C  0.88389231  0.63038564  0.60251880     0.30200
C1258       C  0.85480607  0.62391785  0.62040591    -0.36200
C1259       C  0.84881205  0.59059483  0.62865088     0.16200
C1260       C  0.87025173  0.56568110  0.62016355     0.22000
C1261       C  0.89948443  0.57219087  0.60275854    -0.34300
C1262       C  0.90520730  0.60529990  0.59408902     0.16100
O1263       O  0.89306604  0.65918341  0.59000879    -0.26300
C1264       C  0.92035102  0.65229301  0.57317719     0.05900
C1265       C  0.92924658  0.61920420  0.57494570    -0.31200
O1266       O  0.85856270  0.53609351  0.62739594    -0.23000
C1267       C  0.82897877  0.54167157  0.64051815    -0.03000
C1268       C  0.82184403  0.57540291  0.64246450    -0.17400
H1269       H  0.83738584  0.64324439  0.62611093     0.20500
H1270       H  0.91575977  0.55254826  0.59506693     0.18900
H1271       H  0.94981352  0.60708031  0.56312152     0.18900
H1272       H  0.79916215  0.58674540  0.65061824     0.14700
C1273       C  0.86907188  0.62368237  0.40883689     0.30200
C1274       C  0.83699146  0.60967895  0.40676630    -0.36200
C1275       C  0.83252476  0.58373853  0.38382842     0.16200
C1276       C  0.85776411  0.57294360  0.36388414     0.22000
C1277       C  0.88978997  0.58678727  0.36604101    -0.34300
C1278       C  0.89444949  0.61208355  0.38946531     0.16100
O1279       O  0.87893340  0.64783452  0.42880823    -0.26300
C1280       C  0.91119542  0.65125526  0.42261228     0.05900
C1281       C  0.92221299  0.62956919  0.39843024    -0.31200
O1282       O  0.84891010  0.54728721  0.34560597    -0.23000
C1283       C  0.81765556  0.54059643  0.35424449    -0.03000
C1284       C  0.80600875  0.56308304  0.37770617    -0.17400
H1285       H  0.81712059  0.61787085  0.42253656     0.20500
H1286       H  0.90995767  0.57771858  0.35115856     0.18900
H1287       H  0.94691421  0.62753815  0.38843706     0.18900
H1288       H  0.78227569  0.56308251  0.38999672     0.14700
C1289       C  0.10035537  0.90087575  0.38378357     0.30200
C1290       C  0.12971554  0.91096701  0.36796331    -0.36200
C1291       C  0.12698000  0.93778168  0.34594197     0.16200
C1292       C  0.09728396  0.95297412  0.33956058     0.22000
C1293       C  0.06807085  0.94306873  0.35549837    -0.34300
C1294       C  0.07095392  0.91696886  0.37810851     0.16100
O1295       O  0.09696473  0.87609913  0.40488549    -0.26300
C1296       C  0.06518947  0.87694882  0.41329479     0.05900
C1297       C  0.04784619  0.90206738  0.39771631    -0.31200
O1298       O  0.10063457  0.97926884  0.32061519    -0.23000
C1299       C  0.13301345  0.98179974  0.31504927    -0.03000
C1300       C  0.15064525  0.95607586  0.32989125    -0.17400
H1301       H  0.15313356  0.89929381  0.37309820     0.20500
H1302       H  0.04493018  0.95566057  0.35141098     0.18900
H1303       H  0.02171783  0.90736016  0.39929499     0.18900
H1304       H  0.17714299  0.95305304  0.33149296     0.14700
C1305       C  0.86654812  0.95650231  0.36924778     0.30200
C1306       C  0.88290125  0.94971148  0.39894806    -0.36200
C1307       C  0.89180715  0.91669839  0.40387043     0.16200
C1308       C  0.88456447  0.89189814  0.38141227     0.22000
C1309       C  0.86752134  0.89860563  0.35195231    -0.34300
C1310       C  0.85902458  0.93182126  0.34678822     0.16100
O1311       O  0.85995118  0.98621081  0.35792145    -0.26300
C1312       C  0.84819349  0.98083396  0.32761656     0.05900
C1313       C  0.84633131  0.94720851  0.31966646    -0.31200
O1314       O  0.89745592  0.86328507  0.38994878    -0.23000
C1315       C  0.91329946  0.87004148  0.41803138    -0.03000
C1316       C  0.91049491  0.90281593  0.42798903    -0.17400
H1317       H  0.88990055  0.96915193  0.41609468     0.20500
H1318       H  0.86280180  0.87962569  0.33360243     0.18900
H1319       H  0.83926215  0.93610850  0.29632137     0.18900
H1320       H  0.92150479  0.91484312  0.44930405     0.14700
C1321       C  0.86414803  0.93374164  0.64789897     0.30200
C1322       C  0.87589408  0.90118058  0.64674134    -0.36200
C1323       C  0.89181987  0.89212257  0.61742113     0.16200
C1324       C  0.89619282  0.91367346  0.59114248     0.22000
C1325       C  0.88406807  0.94608451  0.59216394    -0.34300
C1326       C  0.86790768  0.95502025  0.62140118     0.16100
O1327       O  0.85102866  0.94826861  0.67382399    -0.26300
C1328       C  0.84668252  0.97958218  0.66419670     0.05900
C1329       C  0.85580313  0.98466627  0.63117572    -0.31200
O1330       O  0.91273188  0.90029568  0.56658343    -0.23000
C1331       C  0.91863150  0.86965694  0.57715388    -0.03000
C1332       C  0.90618355  0.86317085  0.60858827    -0.17400
H1333       H  0.87353353  0.88436965  0.66754804     0.20500
H1334       H  0.88764164  0.96335812  0.57190168     0.18900
H1335       H  0.85581186  0.00754373  0.61708825     0.18900
H1336       H  0.90783727  0.84052429  0.62292931     0.14700
C1337       C  0.10379784  0.89792819  0.60563102     0.30200
C1338       C  0.13246968  0.90754259  0.62319449    -0.36200
C1339       C  0.13005371  0.93688041  0.64177887     0.16200
C1340       C  0.10118403  0.95463978  0.64329502     0.22000
C1341       C  0.07294421  0.94533788  0.62561646    -0.34300
C1342       C  0.07560059  0.91682653  0.60652162     0.16100
O1343       O  0.09994800  0.87137989  0.58689687    -0.26300
C1344       C  0.06920229  0.87406251  0.57530025     0.05900
C1345       C  0.05306897  0.90199270  0.58643663    -0.31200
O1346       O  0.10442367  0.98213254  0.66005532    -0.23000
C1347       C  0.13595194  0.98301955  0.66927118    -0.03000
C1348       C  0.15325723  0.95507011  0.65885430    -0.17400
H1349       H  0.15511928  0.89359004  0.62189873     0.20500
H1350       H  0.05068429  0.95997105  0.62598370     0.18900
H1351       H  0.02789613  0.90944946  0.58156165     0.18900
H1352       H  0.17938632  0.95010490  0.66117774     0.14700
C1353       C  0.25470647  0.81239370  0.48740681     0.30200
C1354       C  0.22608718  0.81254129  0.46786937    -0.36200
C1355       C  0.19771167  0.79861907  0.48229658     0.16200
C1356       C  0.19728269  0.78595607  0.51403954     0.22000
C1357       C  0.22598485  0.78573282  0.53361827    -0.34300
C1358       C  0.25455691  0.79927731  0.51894911     0.16100
O1359       O  0.28443924  0.82161257  0.47765007    -0.26300
C1360       C  0.30394721  0.81439097  0.50316732     0.05900
C1361       C  0.28650767  0.80033828  0.52963599    -0.31200
O1362       O  0.16783128  0.77451864  0.52259083    -0.23000
C1363       C  0.14939527  0.77951717  0.49576478    -0.03000
C1364       C  0.16670477  0.79436241  0.46991520    -0.17400
H1365       H  0.22617084  0.82203789  0.44280721     0.20500
H1366       H  0.22617785  0.77514304  0.55824356     0.18900
H1367       H  0.29631752  0.79010501  0.55234028     0.18900
H1368       H  0.15751893  0.80177823  0.44587990     0.14700
C1369       C  0.38652615  0.74288117  0.47794781     0.30200
C1370       C  0.41479351  0.72570457  0.46840514    -0.36200
C1371       C  0.41026569  0.69192403  0.46148572     0.16200
C1372       C  0.38009908  0.67581287  0.46427544     0.22000
C1373       C  0.35156824  0.69324444  0.47327548    -0.34300
C1374       C  0.35610353  0.72724856  0.47988392     0.16100
O1375       O  0.38543275  0.77451410  0.48579713    -0.26300
C1376       C  0.35373370  0.77979034  0.49257712     0.05900
C1377       C  0.33432891  0.75091758  0.48935601    -0.31200
O1378       O  0.38271005  0.64323285  0.46158198    -0.23000
C1379       C  0.41483839  0.63858431  0.45619879    -0.03000
C1380       C  0.43296795  0.66811646  0.45579118    -0.17400
H1381       H  0.43888032  0.73766433  0.46736421     0.20500
H1382       H  0.32779652  0.68095168  0.47612916     0.18900
H1383       H  0.30794523  0.74772811  0.49261768     0.18900
H1384       H  0.45961139  0.67113581  0.45573814     0.14700
C1385       C  0.25161097  0.20908794  0.48451355     0.30200
C1386       C  0.22274400  0.21070579  0.46515930    -0.36200
C1387       C  0.19507630  0.22509297  0.48023246     0.16200
C1388       C  0.19558740  0.23664752  0.51231646     0.22000
C1389       C  0.22452353  0.23532175  0.53153472    -0.34300
C1390       C  0.25224946  0.22132010  0.51632257     0.16100
O1391       O  0.28055928  0.19745056  0.47513080    -0.26300
C1392       C  0.30020050  0.20247249  0.50122345     0.05900
C1393       C  0.28372026  0.21737159  0.52749842    -0.31200
O1394       O  0.16663697  0.24812979  0.52183312    -0.23000
C1395       C  0.14731980  0.24436519  0.49534121    -0.03000
C1396       C  0.16381081  0.23023417  0.46869250    -0.17400
H1397       H  0.22195830  0.20156861  0.44002825     0.20500
H1398       H  0.22539455  0.24464433  0.55659701     0.18900
H1399       H  0.29384828  0.22492576  0.55113859     0.18900
H1400       H  0.15387569  0.22371377  0.44467107     0.14700
C1401       C  0.42312751  0.31765073  0.48864812     0.30200
C1402       C  0.42592975  0.28294520  0.48779668    -0.36200
C1403       C  0.39638675  0.26477979  0.49251534     0.16200
C1404       C  0.36629521  0.27967072  0.49772253     0.22000
C1405       C  0.36359499  0.31413150  0.49910276    -0.34300
C1406       C  0.39293069  0.33217603  0.49432742     0.16100
O1407       O  0.44728875  0.33982604  0.48486855    -0.26300
C1408       C  0.43205369  0.36872284  0.48831306     0.05900
C1409       C  0.39834129  0.36527209  0.49426879    -0.31200
O1410       O  0.34176173  0.25817766  0.50101173    -0.23000
C1411       C  0.35614733  0.22885262  0.49815366    -0.03000
C1412       C  0.39024379  0.23154219  0.49288687    -0.17400
H1413       H  0.44935816  0.27097166  0.48364610     0.20500
H1414       H  0.34018182  0.32608335  0.50343785     0.18900
H1415       H  0.38040227  0.38454215  0.49842567     0.18900
H1416       H  0.40780308  0.21173912  0.48980942     0.14700
C1417       C  0.69425295  0.24858159  0.98244824     0.30200
C1418       C  0.69725467  0.27709426  0.96260743    -0.36200
C1419       C  0.70818713  0.30604336  0.97863863     0.16200
C1420       C  0.71520957  0.30702603  0.01202155     0.22000
C1421       C  0.71236369  0.27842009  0.03183693    -0.34300
C1422       C  0.70187050  0.24933702  0.01566743     0.16100
O1423       O  0.68650219  0.21851943  0.97206897    -0.26300
C1424       C  0.68890764  0.19943461  0.99895710     0.05900
C1425       C  0.69901054  0.21744695  0.02675026    -0.31200
O1426       O  0.72495637  0.33679768  0.02186198    -0.23000
C1427       C  0.72456880  0.35505661  0.99433407    -0.03000
C1428       C  0.71433909  0.33715452  0.96667273    -0.17400
H1429       H  0.69212553  0.27656043  0.93633714     0.20500
H1430       H  0.71849989  0.27868301  0.05789433     0.18900
H1431       H  0.70524716  0.20817855  0.05107768     0.18900
H1432       H  0.71134931  0.34594388  0.94153717     0.14700
C1433       C  0.75988749  0.11486139  0.97840383     0.30200
C1434       C  0.77768701  0.08609128  0.97133819    -0.36200
C1435       C  0.81158238  0.09065107  0.96522179     0.16200
C1436       C  0.82705288  0.12136490  0.96605208     0.22000
C1437       C  0.80912951  0.15017930  0.97280066    -0.34300
C1438       C  0.77522262  0.14557481  0.97901275     0.16100
O1439       O  0.72807656  0.11627752  0.98536811    -0.26300
C1440       C  0.72266253  0.14842301  0.99057860     0.05900
C1441       C  0.75145067  0.16772444  0.98701303    -0.31200
O1442       O  0.85954442  0.11935814  0.96351456    -0.23000
C1443       C  0.86484789  0.08699412  0.96039109    -0.03000
C1444       C  0.83590576  0.06803727  0.96141527    -0.17400
H1445       H  0.76610907  0.06173271  0.97152651     0.20500
H1446       H  0.82099442  0.17434788  0.97429093     0.18900
H1447       H  0.75450861  0.19433129  0.98921467     0.18900
H1448       H  0.83354368  0.04126732  0.96270629     0.14700
C1449       C  0.26922014  0.30890248  0.01515820     0.30200
C1450       C  0.27210634  0.27955065  0.03392446    -0.36200
C1451       C  0.28749475  0.25271229  0.01818479     0.16200
C1452       C  0.29947741  0.25479052  0.98634273     0.22000
C1453       C  0.29681973  0.28410444  0.96772650    -0.34300
C1454       C  0.28098754  0.31065877  0.98320547     0.16100
O1455       O  0.25549227  0.33696183  0.02470598    -0.26300
C1456       C  0.25801717  0.35674801  0.99826816     0.05900
C1457       C  0.27367826  0.34155626  0.97177366    -0.31200
O1458       O  0.31043684  0.22617105  0.97539883    -0.23000
C1459       C  0.30540958  0.20501721  0.00038647    -0.03000
C1460       C  0.29149028  0.22046530  0.02789285    -0.17400
H1461       H  0.26231260  0.27751365  0.05874495     0.20500
H1462       H  0.30552972  0.28573649  0.94247409     0.18900
H1463       H  0.27974587  0.35214889  0.94787858     0.18900
H1464       H  0.28309107  0.20896729  0.05064172     0.14700
C1465       C  0.24054775  0.11199726  0.98614058     0.30200
C1466       C  0.22490699  0.08128529  0.97983138    -0.36200
C1467       C  0.19020360  0.08154591  0.97892945     0.16200
C1468       C  0.17248587  0.11006516  0.98434592     0.22000
C1469       C  0.18805462  0.14061653  0.99039825    -0.34300
C1470       C  0.22255059  0.14037100  0.99088941     0.16100
O1471       O  0.27263558  0.11768405  0.98788328    -0.26300
C1472       C  0.27534827  0.15022342  0.99363231     0.05900
C1473       C  0.24464225  0.16552029  0.99555183    -0.31200
O1474       O  0.14047898  0.10476394  0.98397523    -0.23000
C1475       C  0.13728053  0.07252642  0.97782307    -0.03000
C1476       C  0.16741112  0.05659062  0.97428996    -0.17400
H1477       H  0.23879356  0.05884792  0.97597386     0.20500
H1478       H  0.17417843  0.16300504  0.99461103     0.18900
H1479       H  0.23901574  0.19140032  0.99922939     0.18900
H1480       H  0.17182327  0.03044050  0.97051879     0.14700
C1481       C  0.73400011  0.80159382  0.48480460     0.30200
C1482       C  0.75896530  0.78794484  0.46508347    -0.36200
C1483       C  0.78986512  0.78391217  0.48041228     0.16200
C1484       C  0.79556207  0.79232389  0.51300019     0.22000
C1485       C  0.77071794  0.80622117  0.53254835    -0.34300
C1486       C  0.74005160  0.81068794  0.51708665     0.16100
O1487       O  0.70303921  0.80652729  0.47594837    -0.26300
C1488       C  0.68898589  0.81948660  0.50271762     0.05900
C1489       C  0.71118184  0.82270767  0.52906725    -0.31200
O1490       O  0.82617392  0.78658488  0.52239928    -0.23000
C1491       C  0.84051288  0.77448597  0.49549353    -0.03000
C1492       C  0.81912831  0.77240779  0.46848521    -0.17400
H1493       H  0.75457962  0.78090825  0.43962920     0.20500
H1494       H  0.77503149  0.81312722  0.55805102     0.18900
H1495       H  0.70646029  0.83114133  0.55398187     0.18900
H1496       H  0.82452513  0.76419216  0.44363291     0.14700
C1497       C  0.62452688  0.74146722  0.50659980     0.30200
C1498       C  0.62791481  0.70716531  0.51005230    -0.36200
C1499       C  0.59840388  0.68883838  0.51206962     0.16200
C1500       C  0.56756422  0.70318892  0.51135454     0.22000
C1501       C  0.56418850  0.73762708  0.50809737    -0.34300
C1502       C  0.59378101  0.75591355  0.50538407     0.16100
O1503       O  0.64890626  0.76328896  0.50480683    -0.26300
C1504       C  0.63368819  0.79224318  0.50230204     0.05900
C1505       C  0.59927555  0.78903299  0.50203569    -0.31200
O1506       O  0.54332718  0.68097160  0.51142357    -0.23000
C1507       C  0.55902429  0.65218089  0.51177339    -0.03000
C1508       C  0.59323454  0.65558390  0.51247307    -0.17400
H1509       H  0.65188387  0.69552046  0.51052158     0.20500
H1510       H  0.54022689  0.74924270  0.50694648     0.18900
H1511       H  0.58113137  0.80855151  0.50146021     0.18900
H1512       H  0.61158826  0.63627025  0.51163061     0.14700
C1513       C  0.71895754  0.71285971  0.01198516     0.30200
C1514       C  0.71195816  0.73989375  0.03234456    -0.36200
C1515       C  0.70195836  0.76892961  0.01624669     0.16200
C1516       C  0.69875482  0.77161682  0.98244124     0.22000
C1517       C  0.70611194  0.74449502  0.96188364    -0.34300
C1518       C  0.71635363  0.71525391  0.97802939     0.16100
O1519       O  0.72750628  0.68300019  0.02210158    -0.26300
C1520       C  0.73072966  0.66578411  0.99430156     0.05900
C1521       C  0.72426593  0.68467713  0.96605966    -0.31200
O1522       O  0.68934075  0.80167500  0.97303102    -0.23000
C1523       C  0.68633169  0.81838275  0.00136973    -0.03000
C1524       C  0.69445730  0.79894506  0.02880681    -0.17400
H1525       H  0.71400977  0.73836548  0.05899631     0.20500
H1526       H  0.70395982  0.74602183  0.93524903     0.18900
H1527       H  0.72409784  0.67664755  0.94054239     0.18900
H1528       H  0.69565522  0.80585920  0.05454749     0.14700
C1529       C  0.80286869  0.93916394  0.01644478     0.30200
C1530       C  0.76965090  0.93965167  0.02659138    -0.36200
C1531       C  0.75018619  0.91199103  0.01734330     0.16200
C1532       C  0.76240894  0.88597926  0.99914588     0.22000
C1533       C  0.79524628  0.88567663  0.98872621    -0.34300
C1534       C  0.81463485  0.91294646  0.99819801     0.16100
O1535       O  0.82608130  0.96182568  0.02269590    -0.26300
C1536       C  0.85284237  0.94956788  0.00820688     0.05900
C1537       C  0.84689118  0.91934487  0.99261976    -0.31200
O1538       O  0.74008708  0.86280384  0.99298988    -0.23000
C1539       C  0.71296894  0.87359771  0.00778979    -0.03000
C1540       C  0.71784245  0.90443025  0.02304160    -0.17400
H1541       H  0.75976562  0.95990594  0.04087080     0.20500
H1542       H  0.80510500  0.86541387  0.97442394     0.18900
H1543       H  0.86403566  0.90409275  0.97906066     0.18900
H1544       H  0.70002449  0.91935677  0.03602956     0.14700
C1545       C  0.26766195  0.71456478  0.98530299     0.30200
C1546       C  0.26895882  0.74417305  0.96703192    -0.36200
C1547       C  0.28397924  0.77138349  0.98282254     0.16200
C1548       C  0.29719333  0.76953498  0.01420510     0.22000
C1549       C  0.29628990  0.73983146  0.03233429    -0.34300
C1550       C  0.28068303  0.71279841  0.01682535     0.16100
O1551       O  0.25414162  0.68625400  0.97565479    -0.26300
C1552       C  0.25807612  0.66627514  0.00156248     0.05900
C1553       C  0.27441982  0.68147255  0.02789604    -0.31200
O1554       O  0.30720258  0.79864824  0.02533883    -0.23000
C1555       C  0.30031270  0.81970384  0.00085081    -0.03000
C1556       C  0.28615415  0.80376524  0.97356897    -0.17400
H1557       H  0.25806179  0.74614027  0.94265477     0.20500
H1558       H  0.30589725  0.73826380  0.05727942     0.18900
H1559       H  0.28146228  0.67069226  0.05138964     0.18900
H1560       H  0.27696013  0.81458854  0.95092344     0.14700
C1561       C  0.22203736  0.88543080  0.03062081     0.30200
C1562       C  0.19767585  0.89835724  0.05174514    -0.36200
C1563       C  0.16655689  0.90413380  0.03723883     0.16200
C1564       C  0.16021177  0.89724733  0.00439768     0.22000
C1565       C  0.18424324  0.88405567  0.98364047    -0.34300
C1566       C  0.21512723  0.87883943  0.99793228     0.16100
O1567       O  0.25322925  0.87943515  0.03811949    -0.26300
C1568       C  0.26640006  0.86901653  0.00972652     0.05900
C1569       C  0.24356028  0.86856348  0.98396030    -0.31200
O1570       O  0.13139262  0.90803544  0.99456293    -0.23000
C1571       C  0.11857405  0.92206912  0.02122739    -0.03000
C1572       C  0.13913081  0.92006861  0.04886495    -0.17400
H1573       H  0.20299268  0.90471659  0.07720125     0.20500
H1574       H  0.17962263  0.87970710  0.95762728     0.18900
H1575       H  0.24742544  0.86214510  0.95833515     0.18900
H1576       H  0.13587221  0.93159335  0.07275643     0.14700
C1577       C  0.23134934  0.99678472  0.28075269     0.30200
C1578       C  0.25695690  0.97996038  0.26465615    -0.36200
C1579       C  0.28876165  0.99410922  0.26759199     0.16200
C1580       C  0.29483658  0.02304258  0.28484698     0.22000
C1581       C  0.26934441  0.03940056  0.30155786    -0.34300
C1582       C  0.23762635  0.02507300  0.29887993     0.16100
O1583       O  0.19958849  0.98893714  0.27983070    -0.26300
C1584       C  0.18509582  0.01229317  0.29790791     0.05900
C1585       C  0.20786435  0.03526961  0.31067132    -0.31200
O1586       O  0.32614907  0.03262089  0.28335355    -0.23000
C1587       C  0.34051088  0.00932843  0.26523267    -0.03000
C1588       C  0.31847330  0.98455291  0.25499551    -0.17400
H1589       H  0.25231337  0.95770515  0.25038269     0.20500
H1590       H  0.27384330  0.06203640  0.31526906     0.18900
H1591       H  0.20321376  0.05708994  0.32537754     0.18900
H1592       H  0.32358682  0.96289924  0.24016657     0.14700
C1593       C  0.75439440  0.99931794  0.29801750     0.30200
C1594       C  0.72435857  0.98181544  0.30051253    -0.36200
C1595       C  0.69723266  0.99624763  0.28474950     0.16200
C1596       C  0.69923108  0.02624024  0.26825602     0.22000
C1597       C  0.72936216  0.04378164  0.26576028    -0.34300
C1598       C  0.75669512  0.02902689  0.28110309     0.16100
O1599       O  0.78315381  0.98925783  0.30921265    -0.26300
C1600       C  0.80451661  0.01261515  0.29922150     0.05900
C1601       C  0.78925021  0.03816806  0.28176154    -0.31200
O1602       O  0.67053384  0.03523889  0.25570474    -0.23000
C1603       C  0.65015594  0.01033137  0.26377865    -0.03000
C1604       C  0.66543734  0.98541234  0.28183917    -0.17400
H1605       H  0.72244366  0.95820321  0.31323367     0.20500
H1606       H  0.73145630  0.06698981  0.25235300     0.18900
H1607       H  0.80079886  0.05948210  0.26998191     0.18900
H1608       H  0.65445229  0.96300730  0.29207450     0.14700
C1609       C  0.39577241  0.91372186  0.40360091     0.30200
C1610       C  0.37726157  0.91299836  0.43298467    -0.36200
C1611       C  0.36660910  0.88148596  0.44382981     0.16200
C1612       C  0.37412612  0.85272240  0.42718963     0.22000
C1613       C  0.39185207  0.85349068  0.39747661    -0.34300
C1614       C  0.40211359  0.88492755  0.38644862     0.16100
O1615       O  0.40888679  0.94027669  0.38922096    -0.26300
C1616       C  0.42334517  0.92822004  0.36233272     0.05900
C1617       C  0.41977032  0.89401262  0.35929706    -0.31200
O1618       O  0.36489840  0.82580846  0.44338536    -0.23000
C1619       C  0.35099533  0.83722913  0.47085622    -0.03000
C1620       C  0.35062722  0.87187441  0.47196613    -0.17400
H1621       H  0.37214806  0.93531800  0.44678497     0.20500
H1622       H  0.39799287  0.83104122  0.38433031     0.18900
H1623       H  0.42902037  0.87817942  0.33989712     0.18900
H1624       H  0.34237665  0.88747668  0.49199426     0.14700
C1625       C  0.60055797  0.89795955  0.38620348     0.30200
C1626       C  0.62282087  0.87243857  0.39355202    -0.36200
C1627       C  0.62761744  0.86558335  0.42729108     0.16200
C1628       C  0.61175651  0.88281401  0.45187385     0.22000
C1629       C  0.58946126  0.90809091  0.44458986    -0.34300
C1630       C  0.58458597  0.91483483  0.41102874     0.16100
O1631       O  0.59193195  0.90837723  0.35647392    -0.26300
C1632       C  0.57021140  0.93219441  0.36253184     0.05900
C1633       C  0.56466718  0.93717241  0.39602977    -0.31200
O1634       O  0.61901148  0.87190466  0.48159053    -0.23000
C1635       C  0.63998199  0.84720250  0.47645730    -0.03000
C1636       C  0.64595328  0.84198997  0.44286130    -0.17400
H1637       H  0.63521860  0.85869328  0.37436169     0.20500
H1638       H  0.57652906  0.92133475  0.46378711     0.18900
H1639       H  0.54819980  0.95461588  0.40762095     0.18900
H1640       H  0.66068486  0.82296232  0.43147489     0.14700
C1641       C  0.39067214  0.12625827  0.38268795     0.30200
C1642       C  0.36965865  0.15290149  0.38969482    -0.36200
C1643       C  0.36219766  0.15779538  0.42325732     0.16200
C1644       C  0.37455481  0.13771575  0.44788330     0.22000
C1645       C  0.39551758  0.11131729  0.44097386    -0.34300
C1646       C  0.40303860  0.10656192  0.40766899     0.16100
O1647       O  0.40130606  0.11721723  0.35324226    -0.26300
C1648       C  0.42076562  0.09155669  0.35969869     0.05900
C1649       C  0.42278212  0.08392814  0.39315852    -0.31200
O1650       O  0.36603308  0.14741232  0.47752237    -0.23000
C1651       C  0.34778915  0.17423570  0.47241350    -0.03000
C1652       C  0.34453716  0.18187553  0.43884615    -0.17400
H1653       H  0.36022804  0.16892449  0.37044106     0.20500
H1654       H  0.40574607  0.09592252  0.46034146     0.18900
H1655       H  0.43673213  0.06446492  0.40504282     0.18900
H1656       H  0.33250746  0.20303947  0.42780568     0.14700
C1657       C  0.48065768  0.21284614  0.22332117     0.30200
C1658       C  0.46059438  0.24051498  0.21820652    -0.36200
C1659       C  0.47666629  0.26932051  0.20672100     0.16200
C1660       C  0.51015150  0.27090496  0.20047634     0.22000
C1661       C  0.53034412  0.24326306  0.20590552    -0.34300
C1662       C  0.51427534  0.21441976  0.21759866     0.16100
O1663       O  0.47056136  0.18320000  0.23318515    -0.26300
C1664       C  0.49807972  0.16549264  0.23414701     0.05900
C1665       C  0.52609977  0.18367704  0.22475896    -0.31200
O1666       O  0.51995466  0.30063248  0.19034523    -0.23000
C1667       C  0.49234030  0.31840135  0.19001027    -0.03000
C1668       C  0.46474355  0.30004441  0.20031162    -0.17400
H1669       H  0.43424870  0.23963355  0.22283236     0.20500
H1670       H  0.55670972  0.24419538  0.20140307     0.18900
H1671       H  0.55127925  0.17517051  0.22250908     0.18900
H1672       H  0.43967568  0.30848237  0.20362508     0.14700
C1673       C  0.47792833  0.80782479  0.22614396     0.30200
C1674       C  0.45833600  0.78029160  0.21704863    -0.36200
C1675       C  0.47541565  0.75263499  0.20511153     0.16200
C1676       C  0.50935668  0.75187070  0.20263388     0.22000
C1677       C  0.52895117  0.77927819  0.21194532    -0.34300
C1678       C  0.51192930  0.80698671  0.22372338     0.16100
O1679       O  0.46717585  0.83693186  0.23624774    -0.26300
C1680       C  0.49470773  0.85492522  0.24056001     0.05900
C1681       C  0.52326264  0.83739834  0.23332894    -0.31200
O1682       O  0.52023492  0.72277772  0.19276622    -0.23000
C1683       C  0.49293010  0.70448870  0.18810985    -0.03000
C1684       C  0.46429527  0.72206596  0.19584566    -0.17400
H1685       H  0.43165083  0.78046581  0.21897401     0.20500
H1686       H  0.55564602  0.77898178  0.21024265     0.18900
H1687       H  0.54860560  0.84635713  0.23342170     0.18900
H1688       H  0.43906169  0.71295654  0.19722768     0.14700
C1689       C  0.60808102  0.08715676  0.09701538     0.30200
C1690       C  0.62644225  0.08136275  0.06822758    -0.36200
C1691       C  0.64489990  0.10841305  0.05596677     0.16200
C1692       C  0.64460557  0.13934409  0.07039591     0.22000
C1693       C  0.62676160  0.14501059  0.09961848    -0.34300
C1694       C  0.60889599  0.11770619  0.11236311     0.16100
O1695       O  0.58922609  0.06528953  0.11272031    -0.26300
C1696       C  0.57822571  0.08182736  0.13883169     0.05900
C1697       C  0.58975867  0.11452880  0.13997578    -0.31200
O1698       O  0.66095404  0.16183017  0.05283400    -0.23000
C1699       C  0.67250533  0.14505797  0.02698189    -0.03000
C1700       C  0.66363585  0.11144960  0.02819221    -0.17400
H1701       H  0.62613605  0.05747746  0.05605926     0.20500
H1702       H  0.62644299  0.16912034  0.11132604     0.18900
H1703       H  0.58479745  0.13313630  0.15851543     0.18900
H1704       H  0.66790373  0.09267712  0.00964574     0.14700
C1705       C  0.61603304  0.87773738  0.05910373     0.30200
C1706       C  0.58584972  0.89240636  0.06659985    -0.36200
C1707       C  0.58256431  0.90381111  0.09896507     0.16200
C1708       C  0.60691731  0.90012353  0.12262878     0.22000
C1709       C  0.63697267  0.88496407  0.11522760    -0.34300
C1710       C  0.64058298  0.87435112  0.08254003     0.16100
O1711       O  0.62589004  0.86976803  0.02935826    -0.26300
C1712       C  0.65741292  0.86155314  0.03335537     0.05900
C1713       C  0.66769076  0.86348976  0.06627044    -0.31200
O1714       O  0.59945706  0.91465414  0.15065203    -0.23000
C1715       C  0.57023936  0.92812937  0.14459833    -0.03000
C1716       C  0.55842731  0.92214854  0.11290507    -0.17400
H1717       H  0.56713260  0.89657549  0.04793344     0.20500
H1718       H  0.65682855  0.88338530  0.13311855     0.18900
H1719       H  0.69231566  0.86033288  0.07621902     0.18900
H1720       H  0.53582470  0.93079606  0.10159125     0.14700
C1721       C  0.39940283  0.90210547  0.10623398     0.30200
C1722       C  0.39862249  0.88382867  0.07681474    -0.36200
C1723       C  0.36708342  0.87479940  0.06527524     0.16200
C1724       C  0.33840572  0.88329585  0.08146725     0.22000
C1725       C  0.33926032  0.90006538  0.11166301    -0.34300
C1726       C  0.37068259  0.90907643  0.12317145     0.16100
O1727       O  0.42575411  0.91593810  0.11992323    -0.26300
C1728       C  0.41354217  0.93140469  0.14609561     0.05900
C1729       C  0.37959791  0.92773896  0.14955179    -0.31200
O1730       O  0.31171148  0.87717984  0.06381212    -0.23000
C1731       C  0.32321694  0.86431517  0.03593534    -0.03000
C1732       C  0.35756485  0.86133438  0.03600368    -0.17400
H1733       H  0.42083326  0.87870421  0.06293663     0.20500
H1734       H  0.31692368  0.90741648  0.12424251     0.18900
H1735       H  0.36374650  0.93835782  0.16819208     0.18900
H1736       H  0.37327561  0.85336878  0.01596252     0.14700
C1737       C  0.38919115  0.09129263  0.09480883     0.21400
C1738       C  0.37489051  0.08758608  0.06336762    -0.36200
C1739       C  0.35668930  0.11461361  0.05159785     0.16200
C1740       C  0.35332455  0.14372072  0.06903028     0.22000
C1741       C  0.36719698  0.14724112  0.10079127    -0.34300
C1742       C  0.38486992  0.11987181  0.11293961     0.16100
O1743       O  0.40718720  0.06908380  0.11053515    -0.26300
C1744       C  0.41411357  0.08330779  0.13944950     0.05900
C1745       C  0.40071745  0.11488829  0.14236250    -0.31200
O1746       O  0.33632196  0.16627525  0.05251999    -0.23000
C1747       C  0.32816944  0.15120908  0.02426147    -0.03000
C1748       C  0.34004032  0.11882118  0.02273575    -0.17400
H1749       H  0.37770669  0.06513841  0.04906904     0.20500
H1750       H  0.36441770  0.16972258  0.11503601     0.18900
H1751       H  0.40266927  0.13178912  0.16304812     0.18900
H1752       H  0.33759051  0.10128799  0.00262121     0.14700
C1753       C  0.79045679  0.22997302  0.51290847     0.30200
C1754       C  0.76235298  0.22707625  0.53279373    -0.36200
C1755       C  0.73303274  0.21798542  0.51666442     0.16200
C1756       C  0.73111730  0.21163182  0.48328841     0.22000
C1757       C  0.75945473  0.21439232  0.46316386    -0.34300
C1758       C  0.78897672  0.22402322  0.47932681     0.16100
O1759       O  0.82013129  0.23920953  0.52306395    -0.26300
C1760       C  0.83817975  0.23958694  0.49567901     0.05900
C1761       C  0.82012421  0.23025454  0.46762021    -0.31200
O1762       O  0.70044312  0.20497217  0.47357184    -0.23000
C1763       C  0.68248009  0.20721222  0.50120792    -0.03000
C1764       C  0.70191433  0.21550162  0.52856697    -0.17400
H1765       H  0.76312918  0.23233766  0.55901526     0.20500
H1766       H  0.75841333  0.21017681  0.43676058     0.18900
H1767       H  0.82874106  0.22827969  0.44237767     0.18900
H1768       H  0.69436439  0.22079840  0.55353420     0.14700
C1769       C  0.62459106  0.16621932  0.42540529     0.30200
C1770       C  0.63097709  0.14729186  0.39696250    -0.36200
C1771       C  0.60360361  0.13064005  0.38291022     0.16200
C1772       C  0.57226313  0.13220838  0.39623097     0.22000
C1773       C  0.56574088  0.15195366  0.42388798    -0.34300
C1774       C  0.59295163  0.16888474  0.43760128     0.16100
O1775       O  0.64689479  0.18029878  0.44498140    -0.26300
C1776       C  0.62934784  0.19250025  0.47002147     0.05900
C1777       C  0.59544397  0.18664705  0.46599936    -0.31200
O1778       O  0.55071474  0.11298185  0.38068369    -0.23000
C1779       C  0.56825323  0.09926374  0.35666136    -0.03000
C1780       C  0.60127455  0.10954843  0.35659366    -0.17400
H1781       H  0.65573431  0.14460613  0.38729895     0.20500
H1782       H  0.54133252  0.15305584  0.43473392     0.18900
H1783       H  0.57580514  0.19135450  0.48339983     0.18900
H1784       H  0.62076072  0.10200882  0.34001455     0.14700
C1785       C  0.62989875  0.29035010  0.51881587     0.30200
C1786       C  0.63732326  0.32453946  0.51886138    -0.36200
C1787       C  0.61186374  0.34557948  0.52913489     0.16200
C1788       C  0.58126797  0.33368940  0.53891811     0.22000
C1789       C  0.57409711  0.29944525  0.53948640    -0.34300
C1790       C  0.59940823  0.27849087  0.52877926     0.16100
O1791       O  0.64935915  0.26655640  0.50828932    -0.26300
C1792       C  0.63119530  0.23881687  0.51130519     0.05900
C1793       C  0.59975166  0.24497488  0.52402451    -0.31200
O1794       O  0.55967159  0.35764523  0.54291921    -0.23000
C1795       C  0.57662912  0.38541324  0.53625055    -0.03000
C1796       C  0.60928442  0.37934535  0.52745682    -0.17400
H1797       H  0.66078384  0.33415977  0.50996478     0.20500
H1798       H  0.54982607  0.28992990  0.54601684     0.18900
H1799       H  0.58011785  0.22730781  0.52937383     0.18900
H1800       H  0.62725727  0.39684858  0.51758694     0.14700
C1801       C  0.29420328  0.02348976  0.71502251     0.30200
C1802       C  0.27027060  0.04051318  0.69694333    -0.36200
C1803       C  0.23851262  0.02647619  0.69722841     0.16200
C1804       C  0.23047008  0.99809340  0.71469230     0.22000
C1805       C  0.25455978  0.98087494  0.73275857    -0.34300
C1806       C  0.28668008  0.99451722  0.73186055     0.16100
O1807       O  0.32558899  0.03191736  0.71729604    -0.26300
C1808       C  0.33860857  0.00791167  0.73550273     0.05900
C1809       C  0.31567415  0.98375829  0.74519087    -0.31200
O1810       O  0.19888787  0.98992520  0.71185092    -0.23000
C1811       C  0.18664833  0.01310705  0.69180974    -0.03000
C1812       C  0.21050619  0.03642180  0.68196790    -0.17400
H1813       H  0.27612369  0.06292831  0.68323043     0.20500
H1814       H  0.24876333  0.95829322  0.74620517     0.18900
H1815       H  0.31982666  0.96157416  0.75968735     0.18900
H1816       H  0.20764763  0.05815294  0.66649330     0.14700
C1817       C  0.69398720  0.99330602  0.72211756     0.30200
C1818       C  0.72128394  0.97369168  0.71419104    -0.36200
C1819       C  0.75014111  0.99082709  0.70445348     0.16200
C1820       C  0.75224793  0.02493780  0.70244563     0.22000
C1821       C  0.72483709  0.04461980  0.71028682    -0.34300
C1822       C  0.69593768  0.02746266  0.72022739     0.16100
O1823       O  0.66451813  0.98239920  0.73166720    -0.26300
C1824       C  0.64723638  0.00994323  0.73617447     0.05900
C1825       C  0.66562604  0.03870305  0.72940879    -0.31200
O1826       O  0.78238519  0.03565105  0.69463801    -0.23000
C1827       C  0.79986839  0.00795317  0.69131062    -0.03000
C1828       C  0.78079922  0.97944081  0.69739961    -0.17400
H1829       H  0.72024722  0.94689377  0.71590644     0.20500
H1830       H  0.72609842  0.07144211  0.70926119     0.18900
H1831       H  0.65753535  0.06418687  0.73030851     0.18900
H1832       H  0.78890035  0.95396665  0.69833662     0.14700
C1833       C  0.35594390  0.13758905  0.56387047     0.30200
C1834       C  0.35969851  0.10505726  0.57573644    -0.36200
C1835       C  0.38401726  0.10076636  0.60010477     0.16200
C1836       C  0.40242298  0.12693513  0.61264914     0.22000
C1837       C  0.39832581  0.15940502  0.60118179    -0.34300
C1838       C  0.37476066  0.16348964  0.57623216     0.16100
O1839       O  0.33824162  0.14644175  0.53801899    -0.26300
C1840       C  0.34646701  0.17822992  0.53311153     0.05900
C1841       C  0.36840129  0.19030134  0.55703882    -0.31200
O1842       O  0.42381427  0.11751335  0.63515833    -0.23000
C1843       C  0.41969734  0.08480483  0.63658269    -0.03000
C1844       C  0.39520345  0.07284067  0.61544274    -0.17400
H1845       H  0.34588654  0.08434099  0.56546791     0.20500
H1846       H  0.41351930  0.17981615  0.61006276     0.18900
H1847       H  0.38031055  0.21443668  0.55853448     0.18900
H1848       H  0.38625648  0.04757607  0.61268351     0.14700
C1849       C  0.61445412  0.13664239  0.55144942     0.30200
C1850       C  0.59671792  0.10701503  0.55716297    -0.36200
C1851       C  0.59003704  0.09943369  0.59037101     0.16200
C1852       C  0.60068018  0.11935483  0.61608816     0.22000
C1853       C  0.61867043  0.14870418  0.61036372    -0.34300
C1854       C  0.62472976  0.15657366  0.57719952     0.16100
O1855       O  0.62081276  0.15003530  0.52238527    -0.26300
C1856       C  0.63515164  0.17920448  0.52941526     0.05900
C1857       C  0.63805859  0.18440734  0.56339890    -0.31200
O1858       O  0.58972305  0.10902456  0.64495746    -0.23000
C1859       C  0.57159612  0.08227337  0.63774778    -0.03000
C1860       C  0.57101565  0.07491451  0.60415706    -0.17400
H1861       H  0.58743048  0.09181809  0.53708782     0.20500
H1862       H  0.62604384  0.16506177  0.63030925     0.18900
H1863       H  0.64638529  0.20644316  0.57626904     0.18900
H1864       H  0.55749887  0.05526231  0.59167440     0.14700
C1865       C  0.59059102  0.88447721  0.62384768     0.30200
C1866       C  0.59801104  0.85286190  0.61186992    -0.36200
C1867       C  0.61834733  0.85217895  0.58387073     0.16200
C1868       C  0.63103987  0.88050346  0.56916124     0.22000
C1869       C  0.62379559  0.91203334  0.58124215    -0.34300
C1870       C  0.60281334  0.91279044  0.60860713     0.16100
O1871       O  0.57076148  0.89120954  0.64866941    -0.26300
C1872       C  0.57001002  0.92415570  0.64866914     0.05900
C1873       C  0.58927503  0.93892198  0.62433882    -0.31200
O1874       O  0.64654829  0.87439437  0.54136326    -0.23000
C1875       C  0.64304852  0.84177587  0.53742620    -0.03000
C1876       C  0.62648935  0.82659210  0.56390427    -0.17400
H1877       H  0.58744940  0.83051769  0.62263736     0.20500
H1878       H  0.63247268  0.93444781  0.56907198     0.18900
H1879       H  0.59280246  0.96510185  0.61917308     0.18900
H1880       H  0.61926413  0.80082085  0.56692905     0.14700
C1881       C  0.41910135  0.88579429  0.60361600     0.30200
C1882       C  0.42412344  0.86907934  0.57369255    -0.36200
C1883       C  0.39655149  0.85204104  0.56080221     0.16200
C1884       C  0.36599373  0.85196267  0.57589217     0.22000
C1885       C  0.36125457  0.86779338  0.60634171    -0.34300
C1886       C  0.38894167  0.88438224  0.61953523     0.16100
O1887       O  0.44075208  0.90504242  0.61901627    -0.26300
C1888       C  0.42437457  0.91557933  0.64542728     0.05900
C1889       C  0.39218468  0.90325380  0.64722682    -0.31200
O1890       O  0.34278940  0.83781028  0.55758006    -0.23000
C1891       C  0.35871553  0.82810963  0.53051775    -0.03000
C1892       C  0.39244755  0.83589060  0.53162659    -0.17400
H1893       H  0.44754811  0.87020100  0.56080509     0.20500
H1894       H  0.33735445  0.86817907  0.61832001     0.18900
H1895       H  0.37353353  0.90857931  0.66556348     0.18900
H1896       H  0.41066671  0.83259938  0.51237255     0.14700
C1897       C  0.47576928  0.26969982  0.79304710     0.30200
C1898       C  0.45696847  0.24048564  0.78824329    -0.36200
C1899       C  0.47410891  0.21288577  0.77604937     0.16200
C1900       C  0.50754513  0.21371120  0.76937939     0.22000
C1901       C  0.52628359  0.24296338  0.77405252    -0.34300
C1902       C  0.50907564  0.27058636  0.78602041     0.16100
O1903       O  0.46449690  0.29892033  0.80246648    -0.26300
C1904       C  0.49102564  0.31899898  0.80199343     0.05900
C1905       C  0.51932205  0.30240451  0.79142435    -0.31200
O1906       O  0.51867704  0.18474325  0.75902130    -0.23000
C1907       C  0.49189315  0.16508997  0.75862372    -0.03000
C1908       C  0.46350157  0.18144650  0.76891375    -0.17400
H1909       H  0.43070128  0.23944266  0.79326326     0.20500
H1910       H  0.55244388  0.24419534  0.76852950     0.18900
H1911       H  0.54369875  0.31264107  0.78661762     0.18900
H1912       H  0.43879249  0.17125319  0.77187421     0.14700
C1913       C  0.47578970  0.80432069  0.77373810     0.30200
C1914       C  0.45821757  0.77406418  0.77153616    -0.36200
C1915       C  0.47334974  0.74645824  0.78618498     0.16200
C1916       C  0.50339324  0.74867424  0.80225441     0.22000
C1917       C  0.52099368  0.77875386  0.80430025    -0.34300
C1918       C  0.50620584  0.80612761  0.78918836     0.16100
O1919       O  0.46641872  0.83333450  0.76190739    -0.26300
C1920       C  0.49147691  0.85374671  0.76943780     0.05900
C1921       C  0.51692685  0.83809354  0.78628958    -0.31200
O1922       O  0.51364024  0.71979013  0.81312952    -0.23000
C1923       C  0.49008914  0.69837920  0.80377203    -0.03000
C1924       C  0.46427772  0.71373120  0.78690308    -0.17400
H1925       H  0.43466843  0.77209671  0.75890704     0.20500
H1926       H  0.54488280  0.78054485  0.81631090     0.18900
H1927       H  0.53964054  0.84894110  0.79577710     0.18900
H1928       H  0.44272899  0.70219015  0.77569697     0.14700
C1929       C  0.39814242  0.12232807  0.88977441     0.30200
C1930       C  0.39929883  0.14239753  0.91793705    -0.36200
C1931       C  0.36870266  0.15078049  0.93144418     0.16200
C1932       C  0.33899466  0.13981770  0.91838212     0.22000
C1933       C  0.33776135  0.12088519  0.88934671    -0.34300
C1934       C  0.36840492  0.11273062  0.87567770     0.16100
O1935       O  0.42376063  0.10917612  0.87493946    -0.26300
C1936       C  0.41023805  0.09147070  0.85071700     0.05900
C1937       C  0.37595701  0.09296403  0.84965486    -0.31200
O1938       O  0.31386251  0.14593457  0.93799381    -0.23000
C1939       C  0.32757525  0.16121765  0.96392026    -0.03000
C1940       C  0.36158982  0.16582168  0.96052467    -0.17400
H1941       H  0.42245067  0.14948767  0.92953697     0.20500
H1942       H  0.31466416  0.11156760  0.87923794     0.18900
H1943       H  0.35914391  0.08019749  0.83300573     0.18900
H1944       H  0.37888483  0.17544968  0.97866811     0.14700
C1945       C  0.37651822  0.93671196  0.90457020     0.30200
C1946       C  0.35941631  0.94148963  0.93442497    -0.36200
C1947       C  0.34248258  0.91356639  0.94717170     0.16200
C1948       C  0.34266680  0.88306469  0.93177728     0.22000
C1949       C  0.35885143  0.87858686  0.90153155    -0.34300
C1950       C  0.37552647  0.90644574  0.88869484     0.16100
O1951       O  0.39529261  0.95878397  0.88889910    -0.26300
C1952       C  0.40601251  0.94244381  0.86245886     0.05900
C1953       C  0.39427741  0.90990983  0.86099811    -0.31200
O1954       O  0.32797741  0.85959767  0.94938161    -0.23000
C1955       C  0.31772727  0.87514416  0.97641601    -0.03000
C1956       C  0.32566587  0.90900129  0.97606068    -0.17400
H1957       H  0.36002203  0.96501778  0.94726261     0.20500
H1958       H  0.35926654  0.85472679  0.88933654     0.18900
H1959       H  0.39943025  0.89131858  0.84250010     0.18900
H1960       H  0.32140233  0.92703617  0.99532575     0.14700
C1961       C  0.63335465  0.87754354  0.93178395     0.30200
C1962       C  0.61400203  0.87272256  0.90323501    -0.36200
C1963       C  0.59688701  0.90066485  0.89159948     0.16200
C1964       C  0.59825855  0.93109471  0.90720719     0.22000
C1965       C  0.61785926  0.93600497  0.93531612    -0.34300
C1966       C  0.63532795  0.90833990  0.94647872     0.16100
O1967       O  0.64992790  0.85462225  0.94836938    -0.26300
C1968       C  0.66292126  0.87122500  0.97387093     0.05900
C1969       C  0.65485686  0.90486027  0.97328093    -0.31200
O1970       O  0.58064669  0.95390039  0.89201599    -0.23000
C1971       C  0.56815071  0.93802419  0.86601243    -0.03000
C1972       C  0.57736492  0.90487616  0.86448739    -0.17400
H1973       H  0.61222060  0.84888623  0.89106894     0.20500
H1974       H  0.61940242  0.95976737  0.94767559     0.18900
H1975       H  0.66029192  0.92361223  0.99163673     0.18900
H1976       H  0.57119714  0.88680795  0.84563418     0.14700
C1977       C  0.59076246  0.11343106  0.89633647     0.30200
C1978       C  0.59138305  0.13032141  0.92652406    -0.36200
C1979       C  0.62274972  0.13939901  0.93833132     0.16200
C1980       C  0.65157145  0.13178261  0.92196123     0.22000
C1981       C  0.65092883  0.11579112  0.89123346    -0.34300
C1982       C  0.61950392  0.10721427  0.87913604     0.16100
O1983       O  0.56429036  0.10111259  0.88162573    -0.26300
C1984       C  0.57622868  0.08743476  0.85439455     0.05900
C1985       C  0.61034029  0.09066124  0.85132577    -0.31200
O1986       O  0.67819396  0.13941010  0.93925899    -0.23000
C1987       C  0.66632447  0.15249323  0.96697525    -0.03000
C1988       C  0.63188937  0.15380587  0.96726185    -0.17400
H1989       H  0.56904909  0.13520506  0.94029227     0.20500
H1990       H  0.67335221  0.10955522  0.87819509     0.18900
H1991       H  0.62607809  0.08117765  0.83198228     0.18900
H1992       H  0.61598728  0.16188739  0.98710216     0.14700
loop_ 
_geom_bond_atom_site_label_1 
_geom_bond_atom_site_label_2 
_geom_bond_distance 
_geom_bond_site_symmetry_2 
_ccdc_geom_bond_type 
O1          Zr37   2.447       .  S
O1           C12   1.293       .  A
O2          Zr36   2.446       .  S
O2           C13   1.293       .  A
O3           Zr9   2.443       .  S
O3           C14   1.293       .  A
O4           Zr9   2.470       .  S
O4           C15   1.297       .  A
O5          Zr39   2.450       .  S
O5           C15   1.294       .  A
O6          Zr38   2.467       .  S
O6           C14   1.297   1_565  A
O7           Zr9   2.423       .  S
O7           C13   1.289       .  A
O8           Zr9   2.413       .  S
O8           C12   1.287       .  A
Zr9          O10   2.340       .  S
Zr9          O11   2.348       .  S
Zr9          O19   2.337       .  S
Zr9          O17   2.337       .  S
O10         Zr36   2.346       .  S
O10         Zr39   2.335       .  S
O11         Zr37   2.350       .  S
O11         Zr38   2.338   1_545  S
C12        C1984   1.458       .  S
C13        C1859   1.465       .  S
C14        C1824   1.482       .  S
C15        C1907   1.487       .  S
H16          O17   0.964       .  S
O17         Zr36   2.333       .  S
O17         Zr38   2.343   1_545  S
H18          O19   0.965       .  S
O19         Zr37   2.333       .  S
O19         Zr39   2.336       .  S
O20         Zr36   2.440   1_565  S
O20          C43   1.292       .  A
O21         Zr37   2.456   1_565  S
O21          C44   1.295       .  A
O22         Zr38   2.425       .  S
O22          C45   1.288       .  A
O23         Zr39   2.410       .  S
O23          C46   1.286       .  A
O24         Zr39   2.413       .  S
O24          C47   1.287       .  A
O25         Zr38   2.431       .  S
O25          C48   1.290       .  A
O26         Zr40   2.446       .  S
O26          C49   1.292       .  A
O27         Zr40   2.440       .  S
O27          C50   1.292   1_565  A
O28         Zr38   2.444       .  S
O28          C49   1.293       .  A
O29         Zr39   2.433       .  S
O29          C50   1.291       .  A
O30         Zr36   2.427   1_565  S
O30          C45   1.290       .  A
O31         Zr37   2.450   1_565  S
O31          C48   1.294       .  A
O32         Zr37   2.447       .  S
O32          C47   1.293       .  A
O33         Zr36   2.460       .  S
O33          C46   1.295       .  A
O34         Zr40   2.439       .  S
O34          C43   1.292       .  A
O35         Zr40   2.437       .  S
O35          C44   1.292       .  A
Zr36         O42   2.347   1_545  S
Zr36         O54   2.331       .  S
Zr37         O41   2.343       .  S
Zr37         O52   2.341   1_545  S
Zr38         O42   2.338       .  S
Zr38         O52   2.344       .  S
Zr39         O41   2.336       .  S
Zr39         O54   2.345       .  S
Zr40         O41   2.341   1_565  S
Zr40         O42   2.335       .  S
Zr40         O54   2.348   1_565  S
Zr40         O52   2.343       .  S
C43        C1888   1.467       .  S
C44        C1952   1.474       .  S
C45        C1872   1.450       .  S
C46        C1843   1.458       .  S
C47        C1936   1.456       .  S
C48        C1971   1.467       .  S
C49        C1920   1.472       .  S
C50        C1808   1.463       .  S
H51          O52   0.965       .  S
H53          O54   0.965       .  S
C55        C1763   1.534       .  S
C55        C1776   1.535       .  S
C55        C1792   1.533       .  S
C55        C1856   1.531       .  S
O56         Zr92   2.436       .  S
O56          C67   1.291       .  A
O57         Zr91   2.423       .  S
O57          C68   1.289       .  A
O58         Zr64   2.426       .  S
O58          C69   1.291       .  A
O59         Zr64   2.440   1_565  S
O59          C70   1.293       .  A
O60         Zr94   2.433       .  S
O60          C70   1.290       .  A
O61         Zr93   2.444       .  S
O61          C69   1.292       .  A
O62         Zr64   2.461   1_565  S
O62          C68   1.295       .  A
O63         Zr64   2.455       .  S
O63          C67   1.295       .  A
Zr64         O65   2.342   1_545  S
Zr64         O66   2.347       .  S
Zr64         O74   2.335       .  S
Zr64         O72   2.333       .  S
O65         Zr91   2.336       .  S
O65         Zr94   2.336       .  S
O66         Zr92   2.345       .  S
O66         Zr93   2.342       .  S
C67        C1779   1.471       .  S
C68        C1616   1.469       .  S
C69        C1648   1.468       .  S
C70        C1632   1.469       .  S
H71          O72   0.965       .  S
O72         Zr91   2.338   1_545  S
O72         Zr93   2.348       .  S
H73          O74   0.965       .  S
O74         Zr92   2.344       .  S
O74         Zr94   2.341   1_545  S
O75         Zr91   2.413       .  S
O75          C98   1.287       .  A
O76         Zr92   2.436       .  S
O76          C99   1.291       .  A
O77         Zr93   2.461       .  S
O77         C100   1.296       .  A
O78         Zr94   2.442       .  S
O78         C101   1.293       .  A
O79         Zr94   2.432       .  S
O79         C102   1.291   1_565  A
O80         Zr93   2.454       .  S
O80         C103   1.295       .  A
O81         Zr95   2.458       .  S
O81         C104   1.296       .  A
O82         Zr95   2.434   1_565  S
O82         C105   1.292       .  A
O83         Zr93   2.447       .  S
O83         C104   1.294       .  A
O84         Zr94   2.424       .  S
O84         C105   1.289       .  A
O85         Zr91   2.447       .  S
O85         C100   1.293   1_565  A
O86         Zr92   2.436       .  S
O86         C103   1.292       .  A
O87         Zr92   2.447       .  S
O87         C102   1.292       .  A
O88         Zr91   2.455       .  S
O88         C101   1.294       .  A
O89         Zr95   2.441   1_565  S
O89          C98   1.291       .  A
O90         Zr95   2.456       .  S
O90          C99   1.295       .  A
Zr91         O97   2.345   1_565  S
Zr91        O109   2.332       .  S
Zr92         O96   2.341       .  S
Zr92        O107   2.346       .  S
Zr93         O97   2.343       .  S
Zr93        O107   2.349       .  S
Zr94         O96   2.346   1_565  S
Zr94        O109   2.338       .  S
Zr95         O96   2.352       .  S
Zr95         O97   2.349       .  S
Zr95        O109   2.335   1_545  S
Zr95        O107   2.332       .  S
C98        C1728   1.454       .  S
C99        C1696   1.473       .  S
C100       C1587   1.477       .  S
C101       C1680   1.477       .  S
C102       C1603   1.468       .  S
C103       C1664   1.473       .  S
C104       C1744   1.479       .  S
C105       C1715   1.457       .  S
H106        O107   0.965       .  S
H108        O109   0.965       .  S
C110       C1555   1.523       .  S
C110       C1568   1.527       .  S
C110       C1731   1.521       .  S
C110       C1955   1.526   1_554  S
C111       C1523   1.532       .  S
C111       C1539   1.520       .  S
C111       C1712   1.523       .  S
C111       C1968   1.529   1_554  S
C112       C1488   1.525       .  S
C112       C1504   1.513       .  S
C112       C1635   1.525       .  S
C112       C1875   1.527       .  S
C113       C1459   1.532   1_556  S
C113       C1472   1.525       .  S
C113       C1747   1.531   1_556  S
C113       C1939   1.523       .  S
C114       C1424   1.526       .  S
C114       C1440   1.529       .  S
C114       C1699   1.532   1_556  S
C114       C1987   1.520       .  S
C115       C1392   1.524       .  S
C115       C1411   1.521       .  S
C115       C1651   1.525       .  S
C115       C1840   1.526       .  S
C116       C1360   1.521       .  S
C116       C1376   1.527       .  S
C116       C1619   1.525       .  S
C116       C1891   1.525       .  S
O117       Zr153   2.443       .  S
O117        C128   1.293       .  A
O118       Zr152   2.448       .  S
O118        C129   1.294   1_455  A
O119       Zr125   2.411       .  S
O119        C130   1.287       .  A
O120       Zr125   2.427       .  S
O120        C131   1.290       .  A
O121       Zr155   2.442       .  S
O121        C131   1.292       .  A
O122       Zr154   2.445       .  S
O122        C130   1.294       .  A
O123       Zr125   2.452       .  S
O123        C129   1.294       .  A
O124       Zr125   2.452       .  S
O124        C128   1.294       .  A
Zr125       O126   2.335       .  S
Zr125       O127   2.347       .  S
Zr125       O135   2.332       .  S
Zr125       O133   2.343       .  S
O126       Zr152   2.343   1_655  S
O126       Zr155   2.346       .  S
O127       Zr153   2.339       .  S
O127       Zr154   2.347       .  S
C128       C1491   1.473       .  S
C129       C1219   1.479       .  S
C130       C1264   1.458       .  S
C131       C1331   1.466       .  S
H132        O133   0.965       .  S
O133       Zr152   2.334   1_655  S
O133       Zr154   2.342       .  S
H134        O135   0.965       .  S
O135       Zr153   2.346       .  S
O135       Zr155   2.327       .  S
O136       Zr152   2.425       .  S
O136        C159   1.288       .  A
O137       Zr153   2.450       .  S
O137        C160   1.294       .  A
O138       Zr154   2.447   1_455  S
O138        C161   1.295       .  A
O139       Zr155   2.445   1_455  S
O139        C162   1.294       .  A
O140       Zr155   2.440       .  S
O140        C163   1.293       .  A
O141       Zr154   2.465       .  S
O141        C164   1.296       .  A
O142       Zr156   2.422       .  S
O142        C165   1.288       .  A
O143       Zr156   2.434       .  S
O143        C166   1.290       .  A
O144       Zr154   2.453   1_455  S
O144        C165   1.295       .  A
O145       Zr155   2.439   1_455  S
O145        C166   1.292       .  A
O146       Zr152   2.440       .  S
O146        C161   1.291       .  A
O147       Zr153   2.445       .  S
O147        C164   1.292       .  A
O148       Zr153   2.424       .  S
O148        C163   1.289       .  A
O149       Zr152   2.430       .  S
O149        C162   1.289       .  A
O150       Zr156   2.446       .  S
O150        C159   1.294       .  A
O151       Zr156   2.445       .  S
O151        C160   1.294   1_455  A
Zr152       O158   2.337       .  S
Zr152       O170   2.346       .  S
Zr153       O157   2.349       .  S
Zr153       O168   2.341       .  S
Zr154       O158   2.345   1_655  S
Zr154       O168   2.333       .  S
Zr155       O157   2.348       .  S
Zr155       O170   2.335   1_655  S
Zr156       O157   2.340   1_455  S
Zr156       O158   2.337       .  S
Zr156       O170   2.335       .  S
Zr156       O168   2.352   1_455  S
C159       C1363   1.465       .  S
C160       C1200   1.473       .  S
C161       C1248   1.475       .  S
C162       C1344   1.463       .  S
C163       C1315   1.461       .  S
C164       C1280   1.478       .  S
C165       C1232   1.460       .  S
C166       C1296   1.461       .  S
H167        O168   0.965       .  S
H169        O170   0.965       .  S
O171       Zr207   2.422       .  S
O171        C182   1.288       .  A
O172       Zr206   2.452       .  S
O172        C183   1.295   1_455  A
O173       Zr179   2.437       .  S
O173        C184   1.292       .  A
O174       Zr179   2.451       .  S
O174        C185   1.294       .  A
O175       Zr209   2.439       .  S
O175        C185   1.293       .  A
O176       Zr208   2.462       .  S
O176        C184   1.296       .  A
O177       Zr179   2.440       .  S
O177        C183   1.292       .  A
O178       Zr179   2.465       .  S
O178        C182   1.296       .  A
Zr179       O180   2.351       .  S
Zr179       O181   2.341       .  S
Zr179       O189   2.337       .  S
Zr179       O187   2.349       .  S
O180       Zr206   2.337   1_655  S
O180       Zr209   2.330       .  S
O181       Zr207   2.339       .  S
O181       Zr208   2.341       .  S
C182       C1760   1.475       .  S
C183       C1056   1.476       .  S
C184       C1155   1.474       .  S
C185       C1091   1.470       .  S
H186        O187   0.966       .  S
O187       Zr206   2.350   1_655  S
O187       Zr208   2.356       .  S
H188        O189   0.966       .  S
O189       Zr207   2.336       .  S
O189       Zr209   2.356       .  S
O190       Zr206   2.457       .  S
O190        C213   1.295       .  A
O191       Zr207   2.423       .  S
O191        C214   1.288       .  A
O192       Zr208   2.440   1_455  S
O192        C215   1.292       .  A
O193       Zr209   2.482   1_455  S
O193        C216   1.299       .  A
O194       Zr209   2.448       .  S
O194        C217   1.295       .  A
O195       Zr208   2.460       .  S
O195        C218   1.296       .  A
O196       Zr210   2.446       .  S
O196        C219   1.293       .  A
O197       Zr210   2.435       .  S
O197        C220   1.292       .  A
O198       Zr208   2.447   1_455  S
O198        C219   1.294       .  A
O199       Zr209   2.424   1_455  S
O199        C220   1.290       .  A
O200       Zr206   2.412       .  S
O200        C215   1.288       .  A
O201       Zr207   2.416       .  S
O201        C218   1.287       .  A
O202       Zr207   2.430       .  S
O202        C217   1.289       .  A
O203       Zr206   2.448       .  S
O203        C216   1.292       .  A
O204       Zr210   2.450       .  S
O204        C213   1.294       .  A
O205       Zr210   2.457       .  S
O205        C214   1.295   1_455  A
Zr206       O212   2.342       .  S
Zr206       O224   2.331       .  S
Zr207       O211   2.336       .  S
Zr207       O222   2.336       .  S
Zr208       O212   2.340   1_655  S
Zr208       O222   2.349       .  S
Zr209       O211   2.345       .  S
Zr209       O224   2.350   1_655  S
Zr210       O211   2.342   1_455  S
Zr210       O212   2.336       .  S
Zr210       O224   2.350       .  S
Zr210       O222   2.333   1_455  S
C213       C1395   1.482       .  S
C214       C1043   1.473       .  S
C215       C1136   1.456       .  S
C216       C1107   1.486       .  S
C217       C1072   1.470       .  S
C218       C1171   1.463       .  S
C219       C1184   1.474       .  S
C220       C1120   1.459       .  S
H221        O222   0.966       .  S
H223        O224   0.966       .  S
C225       C1011   1.533       .  S
C225       C1024   1.526       .  S
C225       C1088   1.531       .  S
C225       C1267   1.520       .  S
C226        C979   1.534       .  S
C226        C992   1.534       .  S
C226       C1104   1.542       .  S
C226       C1251   1.535       .  S
C227        C963   1.526       .  S
C227       C1168   1.525       .  S
C227       C1312   1.519   1_545  S
C227       C1600   1.523       .  S
C228        C944   1.530       .  S
C228       C1152   1.532       .  S
C228       C1328   1.537   1_545  S
C228       C1827   1.529       .  S
C229        C912   1.535       .  S
C229        C928   1.531       .  S
C229       C1075   1.530       .  S
C229       C1283   1.541       .  S
C230        C880   1.526       .  S
C230        C896   1.524       .  S
C230       C1123   1.520       .  S
C230       C1235   1.521       .  S
C231        C867   1.525       .  S
C231       C1187   1.533       .  S
C231       C1299   1.524   1_545  S
C231       C1584   1.530       .  S
C232        C851   1.522       .  S
C232       C1139   1.521       .  S
C232       C1347   1.520   1_545  S
C232       C1811   1.523       .  S
O233       Zr269   2.443       .  S
O233        C244   1.293       .  A
O234       Zr268   2.456       .  S
O234        C245   1.295       .  A
O235       Zr241   2.442       .  S
O235        C246   1.292       .  A
O236       Zr241   2.402       .  S
O236        C247   1.285       .  A
O237       Zr271   2.429   1_554  S
O237        C247   1.291       .  A
O238       Zr270   2.442   1_554  S
O238        C246   1.293       .  A
O239       Zr241   2.458       .  S
O239        C245   1.295       .  A
O240       Zr241   2.455       .  S
O240        C244   1.295   1_554  A
Zr241       O242   2.342       .  S
Zr241       O243   2.328   1_554  S
Zr241       O251   2.349   1_554  S
Zr241       O249   2.338       .  S
O242       Zr268   2.327       .  S
O242       Zr271   2.333   1_554  S
O243       Zr269   2.342       .  S
O243       Zr270   2.332       .  S
C244       C1520   1.480       .  S
C245        C915   1.488       .  S
C246        C736   1.473       .  S
C247        C832   1.446       .  S
H248        O249   0.967       .  S
O249       Zr268   2.353       .  S
O249       Zr270   2.353   1_554  S
H250        O251   0.966       .  S
O251       Zr269   2.330       .  S
O251       Zr271   2.350       .  S
O252       Zr268   2.440       .  S
O252        C275   1.292   1_554  A
O253       Zr269   2.435       .  S
O253        C276   1.291       .  A
O254       Zr270   2.451   1_554  S
O254        C277   1.294       .  A
O255       Zr271   2.441   1_554  S
O255        C278   1.293       .  A
O256       Zr271   2.451       .  S
O256        C279   1.294       .  A
O257       Zr270   2.439       .  S
O257        C280   1.291       .  A
O258       Zr272   2.436       .  S
O258        C281   1.291       .  A
O259       Zr272   2.426       .  S
O259        C282   1.290       .  A
O260       Zr270   2.443       .  S
O260        C281   1.292       .  A
O261       Zr271   2.443       .  S
O261        C282   1.293       .  A
O262       Zr268   2.422       .  S
O262        C277   1.289       .  A
O263       Zr269   2.411       .  S
O263        C280   1.287       .  A
O264       Zr269   2.433       .  S
O264        C279   1.289       .  A
O265       Zr268   2.443       .  S
O265        C278   1.292       .  A
O266       Zr272   2.451       .  S
O266        C275   1.295       .  A
O267       Zr272   2.459       .  S
O267        C276   1.295       .  A
Zr268       O274   2.343   1_554  S
Zr268       O286   2.342   1_554  S
Zr269       O273   2.328       .  S
Zr269       O284   2.346       .  S
Zr270       O274   2.336       .  S
Zr270       O284   2.356       .  S
Zr271       O273   2.330       .  S
Zr271       O286   2.350       .  S
Zr272       O273   2.340       .  S
Zr272       O274   2.336       .  S
Zr272       O286   2.351       .  S
Zr272       O284   2.338       .  S
C275       C1427   1.476       .  S
C276       C1008   1.478       .  S
C277        C720   1.460       .  S
C278        C784   1.474       .  S
C279        C816   1.467       .  S
C280        C755   1.451       .  S
C281        C768   1.463       .  S
C282        C800   1.461       .  S
H283        O284   0.966       .  S
H285        O286   0.967       .  S
O287       Zr323   2.448       .  S
O287        C298   1.293   1_556  A
O288       Zr322   2.449       .  S
O288        C299   1.293       .  A
O289       Zr295   2.438       .  S
O289        C300   1.291       .  A
O290       Zr295   2.425       .  S
O290        C301   1.289       .  A
O291       Zr325   2.439   1_554  S
O291        C301   1.291       .  A
O292       Zr324   2.458   1_554  S
O292        C300   1.296       .  A
O293       Zr295   2.432       .  S
O293        C299   1.290       .  A
O294       Zr295   2.431       .  S
O294        C298   1.291       .  A
Zr295       O296   2.341       .  S
Zr295       O297   2.343   1_554  S
Zr295       O305   2.340   1_554  S
Zr295       O303   2.342       .  S
O296       Zr322   2.340       .  S
O296       Zr325   2.350   1_554  S
O297       Zr323   2.343       .  S
O297       Zr324   2.347       .  S
C298       C1552   1.468       .  S
C299        C883   1.469       .  S
C300        C624   1.473       .  S
C301        C691   1.456       .  S
H302        O303   0.965       .  S
O303       Zr322   2.345       .  S
O303       Zr324   2.338   1_554  S
H304        O305   0.965       .  S
O305       Zr323   2.344       .  S
O305       Zr325   2.338       .  S
O306       Zr322   2.452       .  S
O306        C329   1.294   1_554  A
O307       Zr323   2.459       .  S
O307        C330   1.296       .  A
O308       Zr324   2.468   1_554  S
O308        C331   1.297       .  A
O309       Zr325   2.447   1_554  S
O309        C332   1.293       .  A
O310       Zr325   2.436       .  S
O310        C333   1.292       .  A
O311       Zr324   2.458       .  S
O311        C334   1.296       .  A
O312       Zr326   2.393       .  S
O312        C335   1.285       .  A
O313       Zr326   2.430       .  S
O313        C336   1.289       .  A
O314       Zr324   2.437       .  S
O314        C335   1.291       .  A
O315       Zr325   2.455       .  S
O315        C336   1.295       .  A
O316       Zr322   2.433       .  S
O316        C331   1.290       .  A
O317       Zr323   2.440       .  S
O317        C334   1.291       .  A
O318       Zr323   2.422       .  S
O318        C333   1.289       .  A
O319       Zr322   2.432       .  S
O319        C332   1.291       .  A
O320       Zr326   2.463       .  S
O320        C329   1.297       .  A
O321       Zr326   2.462       .  S
O321        C330   1.296       .  A
Zr322       O328   2.343   1_554  S
Zr322       O340   2.346   1_554  S
Zr323       O327   2.350       .  S
Zr323       O338   2.333       .  S
Zr324       O328   2.355       .  S
Zr324       O338   2.338       .  S
Zr325       O327   2.343       .  S
Zr325       O340   2.319       .  S
Zr326       O327   2.333       .  S
Zr326       O328   2.349       .  S
Zr326       O340   2.330       .  S
Zr326       O338   2.349       .  S
C329       C1456   1.482       .  S
C330        C976   1.488       .  S
C331        C611   1.475       .  S
C332        C707   1.468       .  S
C333        C672   1.456       .  S
C334        C643   1.479       .  S
C335        C592   1.444       .  S
C336        C656   1.476       .  S
H337        O338   0.965       .  S
H339        O340   0.964       .  S
C341        C579   1.522       .  S
C341        C640   1.534   1_655  S
C341        C819   1.531       .  S
C341       C1216   1.531       .  S
C342        C560   1.522       .  S
C342        C595   1.516   1_655  S
C342        C803   1.523       .  S
C342       C1059   1.523       .  S
C343        C547   1.522       .  S
C343        C675   1.521       .  S
C343        C752   1.517       .  S
C343       C1923   1.521       .  S
C344        C531   1.526       .  S
C344        C688   1.523       .  S
C344        C739   1.528       .  S
C344       C1683   1.529       .  S
C345        C512   1.525       .  S
C345        C608   1.538   1_655  S
C345        C787   1.532       .  S
C345       C1040   1.528       .  S
C346        C499   1.514       .  S
C346        C627   1.531   1_655  S
C346        C835   1.520       .  S
C346       C1203   1.523       .  S
C347        C480   1.523       .  S
C347        C659   1.536       .  S
C347        C771   1.531       .  S
C347       C1904   1.534       .  S
C348        C464   1.517       .  S
C348        C704   1.531       .  S
C348        C723   1.522       .  S
C348       C1667   1.521       .  S
O349       Zr385   2.476       .  S
O349        C360   1.298       .  A
O350       Zr384   2.462       .  S
O350        C361   1.296       .  A
O351       Zr357   2.473       .  S
O351        C362   1.297       .  A
O352       Zr357   2.485       .  S
O352        C363   1.299       .  A
O353       Zr387   2.410       .  S
O353        C363   1.286       .  A
O354       Zr386   2.398       .  S
O354        C362   1.286       .  A
O355       Zr357   2.400       .  S
O355        C361   1.286       .  A
O356       Zr357   2.423       .  S
O356        C360   1.288       .  A
Zr357       O358   2.347       .  S
Zr357       O359   2.335       .  S
Zr357       O367   2.334       .  S
Zr357       O365   2.356       .  S
O358       Zr384   2.348       .  S
O358       Zr387   2.335       .  S
O359       Zr385   2.331       .  S
O359       Zr386   2.343       .  S
C360       C1795   1.473       .  S
C361        C467   1.462       .  S
C362       C1408   1.469       .  S
C363        C931   1.469       .  S
H364        O365   0.966       .  S
O365       Zr384   2.347       .  S
O365       Zr386   2.347       .  S
H366        O367   0.965       .  S
O367       Zr385   2.334       .  S
O367       Zr387   2.350       .  S
O368       Zr384   2.480       .  S
O368        C391   1.298       .  A
O369       Zr385   2.455       .  S
O369        C392   1.294       .  A
O370       Zr386   2.473       .  S
O370        C393   1.297       .  A
O371       Zr387   2.487       .  S
O371        C394   1.300       .  A
O372       Zr387   2.454       .  S
O372        C395   1.294       .  A
O373       Zr386   2.468       .  S
O373        C396   1.296       .  A
O374       Zr388   2.482       .  S
O374        C397   1.299       .  A
O375       Zr388   2.446       .  S
O375        C398   1.292       .  A
O376       Zr386   2.404       .  S
O376        C397   1.284       .  A
O377       Zr387   2.421       .  S
O377        C398   1.289       .  A
O378       Zr384   2.408       .  S
O378        C393   1.286       .  A
O379       Zr385   2.410       .  S
O379        C396   1.287       .  A
O380       Zr385   2.424       .  S
O380        C395   1.289       .  A
O381       Zr384   2.404       .  S
O381        C394   1.285       .  A
O382       Zr388   2.405       .  S
O382        C391   1.285       .  A
O383       Zr388   2.408       .  S
O383        C392   1.287       .  A
Zr384       O390   2.337       .  S
Zr384       O402   2.341       .  S
Zr385       O389   2.334       .  S
Zr385       O400   2.351       .  S
Zr386       O390   2.336       .  S
Zr386       O400   2.341       .  S
Zr387       O389   2.340       .  S
Zr387       O402   2.342       .  S
Zr388       O389   2.336       .  S
Zr388       O390   2.331       .  S
Zr388       O402   2.350       .  S
Zr388       O400   2.340       .  S
C391       C1379   1.467       .  S
C392        C544   1.463       .  S
C393        C899   1.468       .  S
C394        C528   1.471       .  S
C395       C1027   1.465       .  S
C396        C483   1.467       .  S
C397        C995   1.469       .  S
C398       C1507   1.462       .  S
H399        O400   0.966       .  S
H401        O402   0.966       .  S
O403       Zr439   2.474       .  S
O403        C414   1.297       .  A
O404       Zr438   2.474   1_455  S
O404        C415   1.297       .  A
O405       Zr411   2.484       .  S
O405        C416   1.298       .  A
O406       Zr411   2.466   1_545  S
O406        C417   1.297       .  A
O407       Zr441   2.405   1_556  S
O407        C417   1.286       .  A
O408       Zr440   2.382       .  S
O408        C416   1.282   1_655  A
O409       Zr411   2.413   1_545  S
O409        C415   1.288       .  A
O410       Zr411   2.405       .  S
O410        C414   1.286   1_556  A
Zr411       O412   2.343   1_565  S
Zr411       O413   2.332       .  S
Zr411       O421   2.352   1_566  S
Zr411       O419   2.347   1_455  S
O412       Zr438   2.339   1_455  S
O412       Zr441   2.341   1_556  S
O413       Zr439   2.337   1_556  S
O413       Zr440   2.337   1_455  S
C414       C1571   1.469       .  S
C415        C848   1.474       .  S
C416        C576   1.466       .  S
C417       C1475   1.463       .  S
H418        O419   0.966       .  S
O419       Zr438   2.334   1_565  S
O419       Zr440   2.335       .  S
H420        O421   0.967       .  S
O421       Zr439   2.335   1_545  S
O421       Zr441   2.350       .  S
O422       Zr438   2.467       .  S
O422        C445   1.296       .  A
O423       Zr439   2.463   1_655  S
O423        C446   1.295       .  A
O424       Zr440   2.474       .  S
O424        C447   1.297       .  A
O425       Zr441   2.481   1_556  S
O425        C448   1.299       .  A
O426       Zr441   2.476       .  S
O426        C449   1.298       .  A
O427       Zr440   2.451   1_554  S
O427        C450   1.293       .  A
O428       Zr442   2.475   1_565  S
O428        C451   1.297       .  A
O429       Zr442   2.471       .  S
O429        C452   1.297       .  A
O430       Zr440   2.388       .  S
O430        C451   1.284   1_556  A
O431       Zr441   2.415   1_655  S
O431        C452   1.287       .  A
O432       Zr438   2.405       .  S
O432        C447   1.285   1_545  A
O433       Zr439   2.400       .  S
O433        C450   1.285   1_455  A
O434       Zr439   2.408   1_545  S
O434        C449   1.285       .  A
O435       Zr438   2.377       .  S
O435        C448   1.282   1_655  A
O436       Zr442   2.407   1_556  S
O436        C445   1.286       .  A
O437       Zr442   2.414       .  S
O437        C446   1.288   1_545  A
Zr438       O444   2.327       .  S
Zr438       O456   2.349       .  S
Zr439       O443   2.337   1_465  S
Zr439       O454   2.347   1_455  S
Zr440       O444   2.320   1_565  S
Zr440       O454   2.340   1_556  S
Zr441       O443   2.334   1_455  S
Zr441       O456   2.346   1_454  S
Zr442       O443   2.338       .  S
Zr442       O444   2.337   1_554  S
Zr442       O456   2.347   1_554  S
Zr442       O454   2.341   1_545  S
C445       C1443   1.463       .  S
C446        C960   1.466       .  S
C447        C947   1.467       .  S
C448        C563   1.468       .  S
C449        C864   1.466       .  S
C450        C496   1.457       .  S
C451       C1536   1.472       .  S
C452        C515   1.469       .  S
H453        O454   0.966       .  S
H455        O456   0.966       .  S
C457        C462   1.379       .  A
C457        C458   1.407       .  A
C457        O463   1.319       .  A
C458        C459   1.405       .  A
C458        H469   1.082       .  S
C459        C468   1.369       .  A
C459        C460   1.380       .  A
C460        C461   1.397       .  A
C460        O466   1.308       .  A
C461        C462   1.394       .  A
C461        H470   1.083       .  S
C462        C465   1.354       .  A
O463        C464   1.334       .  A
C464        C465   1.392       .  A
C465        H471   1.083       .  S
O466        C467   1.328       .  A
C467        C468   1.392       .  A
C468        H472   1.082       .  S
C473        C478   1.378       .  A
C473        C474   1.411       .  A
C473        O479   1.322       .  A
C474        C475   1.410       .  A
C474        H485   1.082       .  S
C475        C484   1.373       .  A
C475        C476   1.380       .  A
C476        C477   1.397       .  A
C476        O482   1.310       .  A
C477        C478   1.394       .  A
C477        H486   1.083       .  S
C478        C481   1.354       .  A
O479        C480   1.337       .  A
C480        C481   1.392       .  A
C481        H487   1.082       .  S
O482        C483   1.328       .  A
C483        C484   1.395       .  A
C484        H488   1.082       .  S
C489        C494   1.381       .  A
C489        C490   1.393   1_655  A
C489        O495   1.305   1_655  A
C490        C491   1.391   1_455  A
C490        H501   1.083       .  S
C491        C500   1.352   1_655  A
C491        C492   1.379       .  A
C492        C493   1.408       .  A
C492        O498   1.318       .  A
C493        C494   1.405       .  A
C493        H502   1.082       .  S
C494        C497   1.370       .  A
O495        C496   1.325   1_455  A
C496        C497   1.393       .  A
C497        H503   1.082       .  S
O498        C499   1.335       .  A
C499        C500   1.388   1_655  A
C500        H504   1.083       .  S
C505        C510   1.378       .  A
C505        C506   1.409       .  A
C505        O511   1.322       .  A
C506        C507   1.408       .  A
C506        H517   1.082       .  S
C507        C516   1.370       .  A
C507        C508   1.380       .  A
C508        C509   1.401   1_655  A
C508        O514   1.315       .  A
C509        C510   1.399   1_455  A
C509        H518   1.082       .  S
C510        C513   1.358   1_655  A
O511        C512   1.335       .  A
C512        C513   1.394   1_655  A
C513        H519   1.082       .  S
O514        C515   1.330       .  A
C515        C516   1.393       .  A
C516        H520   1.082       .  S
C521        C526   1.380       .  A
C521        C522   1.398       .  A
C521        O527   1.313       .  A
C522        C523   1.396       .  A
C522        H533   1.082       .  S
C523        C532   1.355       .  A
C523        C524   1.378       .  A
C524        C525   1.412       .  A
C524        O530   1.324       .  A
C525        C526   1.411       .  A
C525        H534   1.082       .  S
C526        C529   1.375       .  A
O527        C528   1.328       .  A
C528        C529   1.396       .  A
C529        H535   1.082       .  S
O530        C531   1.338       .  A
C531        C532   1.392       .  A
C532        H536   1.082       .  S
C537        C542   1.381       .  A
C537        C538   1.400       .  A
C537        O543   1.320       .  A
C538        C539   1.402       .  A
C538        H549   1.082       .  S
C539        C548   1.353       .  A
C539        C540   1.378       .  A
C540        C541   1.399       .  A
C540        O546   1.318       .  A
C541        C542   1.401       .  A
C541        H550   1.082       .  S
C542        C545   1.354       .  A
O543        C544   1.329       .  A
C544        C545   1.391       .  A
C545        H551   1.083       .  S
O546        C547   1.332       .  A
C547        C548   1.397       .  A
C548        H552   1.079       .  S
C553        C558   1.379   1_655  A
C553        C554   1.396       .  A
C553        O559   1.318       .  A
C554        C555   1.399   1_655  A
C554        H565   1.083       .  S
C555        C564   1.347       .  A
C555        C556   1.381       .  A
C556        C557   1.402       .  A
C556        O562   1.324       .  A
C557        C558   1.405       .  A
C557        H566   1.082       .  S
C558        C561   1.354       .  A
O559        C560   1.330       .  A
C560        C561   1.399   1_655  A
C561        H567   1.080       .  S
O562        C563   1.330       .  A
C563        C564   1.393       .  A
C564        H568   1.083   1_455  S
C569        C574   1.379       .  A
C569        C570   1.396   1_455  A
C569        O575   1.305   1_455  A
C570        C571   1.392       .  A
C570        H581   1.083       .  S
C571        C580   1.355       .  A
C571        C572   1.377   1_655  A
C572        C573   1.412       .  A
C572        O578   1.320       .  A
C573        C574   1.409       .  A
C573        H582   1.082       .  S
C574        C577   1.377       .  A
O575        C576   1.328   1_655  A
C576        C577   1.396       .  A
C577        H583   1.082       .  S
O578        C579   1.337   1_455  A
C579        C580   1.391       .  A
C580        H584   1.082       .  S
C585        C590   1.382       .  A
C585        C586   1.397       .  A
C585        O591   1.315       .  A
C586        C587   1.399       .  A
C586        H597   1.082       .  S
C587        C596   1.353       .  A
C587        C588   1.381       .  A
C588        C589   1.394       .  A
C588        O594   1.311       .  A
C589        C590   1.393       .  A
C589        H598   1.083       .  S
C590        C593   1.348       .  A
O591        C592   1.326       .  A
C592        C593   1.385       .  A
C593        H599   1.083       .  S
O594        C595   1.328       .  A
C595        C596   1.396       .  A
C596        H600   1.083       .  S
C601        C606   1.378       .  A
C601        C602   1.409       .  A
C601        O607   1.324       .  A
C602        C603   1.409       .  A
C602        H613   1.082       .  S
C603        C612   1.366       .  A
C603        C604   1.380       .  A
C604        C605   1.404       .  A
C604        O610   1.322       .  A
C605        C606   1.404       .  A
C605        H614   1.082       .  S
C606        C609   1.360       .  A
O607        C608   1.337       .  A
C608        C609   1.397       .  A
C609        H615   1.082       .  S
O610        C611   1.331       .  A
C611        C612   1.394       .  A
C612        H616   1.083       .  S
C617        C622   1.381       .  A
C617        C618   1.396       .  A
C617        O623   1.317       .  A
C618        C619   1.397       .  A
C618        H629   1.083       .  S
C619        C628   1.348       .  A
C619        C620   1.379       .  A
C620        C621   1.411       .  A
C620        O626   1.329       .  A
C621        C622   1.413       .  A
C621        H630   1.082       .  S
C622        C625   1.369       .  A
O623        C624   1.327       .  A
C624        C625   1.397       .  A
C625        H631   1.082       .  S
O626        C627   1.336       .  A
C627        C628   1.395       .  A
C628        H632   1.083       .  S
C633        C638   1.377       .  A
C633        C634   1.401       .  A
C633        O639   1.313       .  A
C634        C635   1.400       .  A
C634        H645   1.082       .  S
C635        C644   1.361       .  A
C635        C636   1.379       .  A
C636        C637   1.410       .  A
C636        O642   1.323       .  A
C637        C638   1.408       .  A
C637        H646   1.082       .  S
C638        C641   1.369       .  A
O639        C640   1.335       .  A
C640        C641   1.399       .  A
C641        H647   1.082       .  S
O642        C643   1.335       .  A
C643        C644   1.391       .  A
C644        H648   1.082       .  S
C649        C654   1.379       .  A
C649        C650   1.411       .  A
C649        O655   1.322       .  A
C650        C651   1.408       .  A
C650        H661   1.082       .  S
C651        C660   1.372       .  A
C651        C652   1.377       .  A
C652        C653   1.401       .  A
C652        O658   1.311       .  A
C653        C654   1.398       .  A
C653        H662   1.082       .  S
C654        C657   1.360       .  A
O655        C656   1.335       .  A
C656        C657   1.389       .  A
C657        H663   1.083       .  S
O658        C659   1.334       .  A
C659        C660   1.399       .  A
C660        H664   1.082       .  S
C665        C670   1.382       .  A
C665        C666   1.395       .  A
C665        O671   1.313       .  A
C666        C667   1.396       .  A
C666        H677   1.083       .  S
C667        C676   1.348       .  A
C667        C668   1.379       .  A
C668        C669   1.403       .  A
C668        O674   1.320       .  A
C669        C670   1.403       .  A
C669        H678   1.082       .  S
C670        C673   1.360       .  A
O671        C672   1.326       .  A
C672        C673   1.391       .  A
C673        H679   1.083       .  S
O674        C675   1.333       .  A
C675        C676   1.395       .  A
C676        H680   1.081       .  S
C681        C686   1.379       .  A
C681        C682   1.404       .  A
C681        O687   1.319       .  A
C682        C683   1.403       .  A
C682        H693   1.082       .  S
C683        C692   1.362       .  A
C683        C684   1.382       .  A
C684        C685   1.398       .  A
C684        O690   1.315       .  A
C685        C686   1.398       .  A
C685        H694   1.082       .  S
C686        C689   1.355       .  A
O687        C688   1.334       .  A
C688        C689   1.395       .  A
C689        H695   1.083       .  S
O690        C691   1.327       .  A
C691        C692   1.390       .  A
C692        H696   1.083       .  S
C697        C702   1.378       .  A
C697        C698   1.403       .  A
C697        O703   1.320       .  A
C698        C699   1.403       .  A
C698        H709   1.082       .  S
C699        C708   1.360       .  A
C699        C700   1.381       .  A
C700        C701   1.401       .  A
C700        O706   1.319       .  A
C701        C702   1.402       .  A
C701        H710   1.082       .  S
C702        C705   1.355       .  A
O703        C704   1.333       .  A
C704        C705   1.399       .  A
C705        H711   1.082       .  S
O706        C707   1.330       .  A
C707        C708   1.391       .  A
C708        H712   1.083       .  S
C713        C718   1.382       .  A
C713        C714   1.395       .  A
C713        O719   1.315       .  A
C714        C715   1.396       .  A
C714        H725   1.082       .  S
C715        C724   1.348       .  A
C715        C716   1.380       .  A
C716        C717   1.406       .  A
C716        O722   1.323       .  A
C717        C718   1.407       .  A
C717        H726   1.082       .  S
C718        C721   1.363       .  A
O719        C720   1.326       .  A
C720        C721   1.393       .  A
C721        H727   1.083       .  S
O722        C723   1.334       .  A
C723        C724   1.393       .  A
C724        H728   1.083       .  S
C729        C734   1.380       .  A
C729        C730   1.405       .  A
C729        O735   1.319       .  A
C730        C731   1.403       .  A
C730        H741   1.082       .  S
C731        C740   1.365       .  A
C731        C732   1.378       .  A
C732        C733   1.404       .  A
C732        O738   1.315       .  A
C733        C734   1.402       .  A
C733        H742   1.083       .  S
C734        C737   1.363       .  A
O735        C736   1.331       .  A
C736        C737   1.393       .  A
C737        H743   1.083       .  S
O738        C739   1.336       .  A
C739        C740   1.395       .  A
C740        H744   1.082       .  S
C745        C750   1.380       .  A
C745        C746   1.397       .  A
C745        O751   1.312       .  A
C746        C747   1.396       .  A
C746        H757   1.082       .  S
C747        C756   1.354       .  A
C747        C748   1.382       .  A
C748        C749   1.399       .  A
C748        O754   1.315       .  A
C749        C750   1.399       .  A
C749        H758   1.082       .  S
C750        C753   1.355       .  A
O751        C752   1.329       .  A
C752        C753   1.396       .  A
C753        H759   1.083       .  S
O754        C755   1.328       .  A
C755        C756   1.386       .  A
C756        H760   1.083       .  S
C761        C766   1.381       .  A
C761        C762   1.401       .  A
C761        O767   1.318       .  A
C762        C763   1.401       .  A
C762        H773   1.082       .  S
C763        C772   1.356       .  A
C763        C764   1.379       .  A
C764        C765   1.405       .  A
C764        O770   1.321       .  A
C765        C766   1.404       .  A
C765        H774   1.082       .  S
C766        C769   1.362       .  A
O767        C768   1.329       .  A
C768        C769   1.391       .  A
C769        H775   1.083       .  S
O770        C771   1.334       .  A
C771        C772   1.396       .  A
C772        H776   1.083       .  S
C777        C782   1.380       .  A
C777        C778   1.409       .  A
C777        O783   1.322       .  A
C778        C779   1.407       .  A
C778        H789   1.082       .  S
C779        C788   1.369       .  A
C779        C780   1.378       .  A
C780        C781   1.400       .  A
C780        O786   1.312       .  A
C781        C782   1.398       .  A
C781        H790   1.082       .  S
C782        C785   1.359       .  A
O783        C784   1.334       .  A
C784        C785   1.390       .  A
C785        H791   1.083       .  S
O786        C787   1.333       .  A
C787        C788   1.399       .  A
C788        H792   1.082       .  S
C793        C798   1.382       .  A
C793        C794   1.395       .  A
C793        O799   1.313       .  A
C794        C795   1.396       .  A
C794        H805   1.083       .  S
C795        C804   1.347       .  A
C795        C796   1.378       .  A
C796        C797   1.404       .  A
C796        O802   1.321       .  A
C797        C798   1.405       .  A
C797        H806   1.082       .  S
C798        C801   1.362       .  A
O799        C800   1.326       .  A
C800        C801   1.393       .  A
C801        H807   1.082       .  S
O802        C803   1.332       .  A
C803        C804   1.396       .  A
C804        H808   1.081       .  S
C809        C814   1.380       .  A
C809        C810   1.405       .  A
C809        O815   1.320       .  A
C810        C811   1.405       .  A
C810        H821   1.082       .  S
C811        C820   1.364       .  A
C811        C812   1.378       .  A
C812        C813   1.403       .  A
C812        O818   1.316       .  A
C813        C814   1.402       .  A
C813        H822   1.082       .  S
C814        C817   1.363       .  A
O815        C816   1.331       .  A
C816        C817   1.389       .  A
C817        H823   1.083       .  S
O818        C819   1.334       .  A
C819        C820   1.399       .  A
C820        H824   1.081       .  S
C825        C830   1.381       .  A
C825        C826   1.400       .  A
C825        O831   1.312       .  A
C826        C827   1.399       .  A
C826        H837   1.082       .  S
C827        C836   1.359       .  A
C827        C828   1.379       .  A
C828        C829   1.394       .  A
C828        O834   1.306       .  A
C829        C830   1.391       .  A
C829        H838   1.082       .  S
C830        C833   1.352       .  A
O831        C832   1.328       .  A
C832        C833   1.384       .  A
C833        H839   1.083       .  S
O834        C835   1.329       .  A
C835        C836   1.398       .  A
C836        H840   1.082       .  S
C841        C846   1.381       .  A
C841        C842   1.408       .  A
C841        O847   1.326       .  A
C842        C843   1.408       .  A
C842        H853   1.082       .  S
C843        C852   1.361       .  A
C843        C844   1.379       .  A
C844        C845   1.396       .  A
C844        O850   1.316       .  A
C845        C846   1.398       .  A
C845        H854   1.082       .  S
C846        C849   1.352       .  A
O847        C848   1.334       .  A
C848        C849   1.390       .  A
C849        H855   1.083       .  S
O850        C851   1.330       .  A
C851        C852   1.401       .  A
C852        H856   1.082       .  S
C857        C862   1.379       .  A
C857        C858   1.403       .  A
C857        O863   1.315       .  A
C858        C859   1.400       .  A
C858        H869   1.082       .  S
C859        C868   1.361       .  A
C859        C860   1.378       .  A
C860        C861   1.407       .  A
C860        O866   1.319       .  A
C861        C862   1.406       .  A
C861        H870   1.082       .  S
C862        C865   1.369       .  A
O863        C864   1.331       .  A
C864        C865   1.393       .  A
C865        H871   1.082       .  S
O866        C867   1.335       .  A
C867        C868   1.396       .  A
C868        H872   1.082       .  S
C873        C878   1.378       .  A
C873        C874   1.406       .  A
C873        O879   1.319       .  A
C874        C875   1.405       .  A
C874        H885   1.082       .  S
C875        C884   1.363       .  A
C875        C876   1.380       .  A
C876        C877   1.401       .  A
C876        O882   1.318       .  A
C877        C878   1.401       .  A
C877        H886   1.082       .  S
C878        C881   1.359       .  A
O879        C880   1.335       .  A
C880        C881   1.397       .  A
C881        H887   1.080       .  S
O882        C883   1.329       .  A
C883        C884   1.393       .  A
C884        H888   1.083       .  S
C889        C894   1.378       .  A
C889        C890   1.410       .  A
C889        O895   1.320       .  A
C890        C891   1.408       .  A
C890        H901   1.082       .  S
C891        C900   1.373       .  A
C891        C892   1.381       .  A
C892        C893   1.397       .  A
C892        O898   1.311       .  A
C893        C894   1.394       .  A
C893        H902   1.082       .  S
C894        C897   1.355       .  A
O895        C896   1.337       .  A
C896        C897   1.393       .  A
C897        H903   1.082       .  S
O898        C899   1.328       .  A
C899        C900   1.395       .  A
C900        H904   1.082       .  S
C905        C910   1.378       .  A
C905        C906   1.408       .  A
C905        O911   1.324       .  A
C906        C907   1.408       .  A
C906        H917   1.082       .  S
C907        C916   1.367       .  A
C907        C908   1.379       .  A
C908        C909   1.408       .  A
C908        O914   1.325       .  A
C909        C910   1.408       .  A
C909        H918   1.082       .  S
C910        C913   1.365       .  A
O911        C912   1.336       .  A
C912        C913   1.399       .  A
C913        H919   1.082       .  S
O914        C915   1.335       .  A
C915        C916   1.395       .  A
C916        H920   1.082       .  S
C921        C926   1.378       .  A
C921        C922   1.405       .  A
C921        O927   1.319       .  A
C922        C923   1.404       .  A
C922        H933   1.082       .  S
C923        C932   1.366       .  A
C923        C924   1.379       .  A
C924        C925   1.409       .  A
C924        O930   1.321       .  A
C925        C926   1.407       .  A
C925        H934   1.082       .  S
C926        C929   1.368       .  A
O927        C928   1.334       .  A
C928        C929   1.399       .  A
C929        H935   1.082       .  S
O930        C931   1.334       .  A
C931        C932   1.391       .  A
C932        H936   1.083       .  S
C937        C942   1.377   1_545  A
C937        C938   1.405       .  A
C937        O943   1.320       .  A
C938        C939   1.406   1_545  A
C938        H949   1.082       .  S
C939        C948   1.362       .  A
C939        C940   1.380       .  A
C940        C941   1.403       .  A
C940        O946   1.321       .  A
C941        C942   1.403       .  A
C941        H950   1.082       .  S
C942        C945   1.359       .  A
O943        C944   1.335       .  A
C944        C945   1.398   1_545  A
C945        H951   1.081       .  S
O946        C947   1.330       .  A
C947        C948   1.394       .  A
C948        H952   1.083   1_565  S
C953        C958   1.380       .  A
C953        C954   1.398       .  A
C953        O959   1.310       .  A
C954        C955   1.395       .  A
C954        H965   1.082       .  S
C955        C964   1.357       .  A
C955        C956   1.377       .  A
C956        C957   1.408       .  A
C956        O962   1.317       .  A
C957        C958   1.406       .  A
C957        H966   1.082       .  S
C958        C961   1.371       .  A
O959        C960   1.328       .  A
C960        C961   1.394       .  A
C961        H967   1.082       .  S
O962        C963   1.336   1_565  A
C963        C964   1.395   1_545  A
C964        H968   1.081   1_565  S
C969        C974   1.379       .  A
C969        C970   1.409       .  A
C969        O975   1.326       .  A
C970        C971   1.409       .  A
C970        H981   1.082       .  S
C971        C980   1.365       .  A
C971        C972   1.378       .  A
C972        C973   1.408       .  A
C972        O978   1.326       .  A
C973        C974   1.409       .  A
C973        H982   1.082       .  S
C974        C977   1.366       .  A
O975        C976   1.335       .  A
C976        C977   1.395       .  A
C977        H983   1.082       .  S
O978        C979   1.336       .  A
C979        C980   1.399       .  A
C980        H984   1.082       .  S
C985        C990   1.378       .  A
C985        C986   1.408       .  A
C985        O991   1.322       .  A
C986        C987   1.407       .  A
C986        H997   1.082       .  S
C987        C996   1.368       .  A
C987        C988   1.379       .  A
C988        C989   1.407       .  A
C988        O994   1.320       .  A
C989        C990   1.405       .  A
C989        H998   1.082       .  S
C990        C993   1.366       .  A
O991        C992   1.337       .  A
C992        C993   1.398       .  A
C993        H999   1.082       .  S
O994        C995   1.333       .  A
C995        C996   1.393       .  A
C996       H1000   1.083       .  S
C1001      C1006   1.380       .  A
C1001      C1002   1.404       .  A
C1001      O1007   1.322       .  A
C1002      C1003   1.404       .  A
C1002      H1013   1.082       .  S
C1003      C1012   1.361       .  A
C1003      C1004   1.378       .  A
C1004      C1005   1.407       .  A
C1004      O1010   1.322       .  A
C1005      C1006   1.407       .  A
C1005      H1014   1.082       .  S
C1006      C1009   1.364       .  A
O1007      C1008   1.331       .  A
C1008      C1009   1.395       .  A
C1009      H1015   1.083       .  S
O1010      C1011   1.336       .  A
C1011      C1012   1.396       .  A
C1012      H1016   1.082       .  S
C1017      C1022   1.377       .  A
C1017      C1018   1.409       .  A
C1017      O1023   1.321       .  A
C1018      C1019   1.408       .  A
C1018      H1029   1.082       .  S
C1019      C1028   1.371       .  A
C1019      C1020   1.381       .  A
C1020      C1021   1.398       .  A
C1020      O1026   1.312       .  A
C1021      C1022   1.396       .  A
C1021      H1030   1.082       .  S
C1022      C1025   1.356       .  A
O1023      C1024   1.337       .  A
C1024      C1025   1.395       .  A
C1025      H1031   1.082       .  S
O1026      C1027   1.327       .  A
C1027      C1028   1.394       .  A
C1028      H1032   1.083       .  S
C1033      C1038   1.376   1_655  A
C1033      C1034   1.408       .  A
C1033      O1039   1.322       .  A
C1034      C1035   1.407       .  A
C1034      H1045   1.082       .  S
C1035      C1044   1.364       .  A
C1035      C1036   1.380   1_655  A
C1036      C1037   1.400       .  A
C1036      O1042   1.318       .  A
C1037      C1038   1.400       .  A
C1037      H1046   1.082       .  S
C1038      C1041   1.357       .  A
O1039      C1040   1.337       .  A
C1040      C1041   1.397   1_655  A
C1041      H1047   1.081       .  S
O1042      C1043   1.329   1_455  A
C1043      C1044   1.396       .  A
C1044      H1048   1.083       .  S
C1049      C1054   1.379   1_655  A
C1049      C1050   1.409       .  A
C1049      O1055   1.322       .  A
C1050      C1051   1.407       .  A
C1050      H1061   1.082       .  S
C1051      C1060   1.368       .  A
C1051      C1052   1.378   1_655  A
C1052      C1053   1.401       .  A
C1052      O1058   1.314       .  A
C1053      C1054   1.400       .  A
C1053      H1062   1.082       .  S
C1054      C1057   1.360       .  A
O1055      C1056   1.334       .  A
C1056      C1057   1.391   1_655  A
C1057      H1063   1.083       .  S
O1058      C1059   1.333   1_455  A
C1059      C1060   1.397       .  A
C1060      H1064   1.082       .  S
C1065      C1070   1.380       .  A
C1065      C1066   1.410       .  A
C1065      O1071   1.321       .  A
C1066      C1067   1.408       .  A
C1066      H1077   1.082       .  S
C1067      C1076   1.370       .  A
C1067      C1068   1.378       .  A
C1068      C1069   1.398       .  A
C1068      O1074   1.311       .  A
C1069      C1070   1.396       .  A
C1069      H1078   1.082       .  S
C1070      C1073   1.357       .  A
O1071      C1072   1.334       .  A
C1072      C1073   1.388       .  A
C1073      H1079   1.083       .  S
O1074      C1075   1.332       .  A
C1075      C1076   1.400       .  A
C1076      H1080   1.082       .  S
C1081      C1086   1.377       .  A
C1081      C1082   1.401       .  A
C1081      O1087   1.314       .  A
C1082      C1083   1.400       .  A
C1082      H1093   1.082       .  S
C1083      C1092   1.359       .  A
C1083      C1084   1.380       .  A
C1084      C1085   1.407       .  A
C1084      O1090   1.322       .  A
C1085      C1086   1.406       .  A
C1085      H1094   1.082       .  S
C1086      C1089   1.365       .  A
O1087      C1088   1.334       .  A
C1088      C1089   1.400       .  A
C1089      H1095   1.080       .  S
O1090      C1091   1.332       .  A
C1091      C1092   1.390       .  A
C1092      H1096   1.083       .  S
C1097      C1102   1.377       .  A
C1097      C1098   1.409       .  A
C1097      O1103   1.320       .  A
C1098      C1099   1.407       .  A
C1098      H1109   1.082       .  S
C1099      C1108   1.370       .  A
C1099      C1100   1.379       .  A
C1100      C1101   1.412       .  A
C1100      O1106   1.325       .  A
C1101      C1102   1.410       .  A
C1101      H1110   1.082       .  S
C1102      C1105   1.373       .  A
O1103      C1104   1.337       .  A
C1104      C1105   1.400       .  A
C1105      H1111   1.082       .  S
O1106      C1107   1.336       .  A
C1107      C1108   1.393       .  A
C1108      H1112   1.082       .  S
C1113      C1118   1.381       .  A
C1113      C1114   1.400       .  A
C1113      O1119   1.315       .  A
C1114      C1115   1.399       .  A
C1114      H1125   1.082       .  S
C1115      C1124   1.357       .  A
C1115      C1116   1.379       .  A
C1116      C1117   1.399       .  A
C1116      O1122   1.313       .  A
C1117      C1118   1.398       .  A
C1117      H1126   1.083       .  S
C1118      C1121   1.356       .  A
O1119      C1120   1.328       .  A
C1120      C1121   1.390       .  A
C1121      H1127   1.083       .  S
O1122      C1123   1.332       .  A
C1123      C1124   1.394       .  A
C1124      H1128   1.082       .  S
C1129      C1134   1.382       .  A
C1129      C1130   1.398       .  A
C1129      O1135   1.316       .  A
C1130      C1131   1.399       .  A
C1130      H1141   1.083       .  S
C1131      C1140   1.351       .  A
C1131      C1132   1.380       .  A
C1132      C1133   1.397       .  A
C1132      O1138   1.314       .  A
C1133      C1134   1.397       .  A
C1133      H1142   1.082       .  S
C1134      C1137   1.353       .  A
O1135      C1136   1.328       .  A
C1136      C1137   1.388       .  A
C1137      H1143   1.083       .  S
O1138      C1139   1.330       .  A
C1139      C1140   1.398       .  A
C1140      H1144   1.082       .  S
C1145      C1150   1.379       .  A
C1145      C1146   1.408       .  A
C1145      O1151   1.327       .  A
C1146      C1147   1.409       .  A
C1146      H1157   1.082       .  S
C1147      C1156   1.364       .  A
C1147      C1148   1.380       .  A
C1148      C1149   1.402       .  A
C1148      O1154   1.322       .  A
C1149      C1150   1.404       .  A
C1149      H1158   1.082       .  S
C1150      C1153   1.356       .  A
O1151      C1152   1.335       .  A
C1152      C1153   1.398       .  A
C1153      H1159   1.083       .  S
O1154      C1155   1.331       .  A
C1155      C1156   1.393       .  A
C1156      H1160   1.082       .  S
C1161      C1166   1.379       .  A
C1161      C1162   1.406       .  A
C1161      O1167   1.323       .  A
C1162      C1163   1.406       .  A
C1162      H1173   1.082       .  S
C1163      C1172   1.361       .  A
C1163      C1164   1.381       .  A
C1164      C1165   1.397       .  A
C1164      O1170   1.317       .  A
C1165      C1166   1.398       .  A
C1165      H1174   1.082       .  S
C1166      C1169   1.349       .  A
O1167      C1168   1.335       .  A
C1168      C1169   1.395       .  A
C1169      H1175   1.082       .  S
O1170      C1171   1.327       .  A
C1171      C1172   1.392       .  A
C1172      H1176   1.083       .  S
C1177      C1182   1.380       .  A
C1177      C1178   1.407       .  A
C1177      O1183   1.320       .  A
C1178      C1179   1.405       .  A
C1178      H1189   1.082       .  S
C1179      C1188   1.367       .  A
C1179      C1180   1.378       .  A
C1180      C1181   1.404       .  A
C1180      O1186   1.315       .  A
C1181      C1182   1.401       .  A
C1181      H1190   1.082       .  S
C1182      C1185   1.362       .  A
O1183      C1184   1.332       .  A
C1184      C1185   1.392       .  A
C1185      H1191   1.083       .  S
O1186      C1187   1.335       .  A
C1187      C1188   1.396       .  A
C1188      H1192   1.082       .  S
C1193      C1198   1.380   1_655  A
C1193      C1194   1.401       .  A
C1193      O1199   1.320       .  A
C1194      C1195   1.402       .  A
C1194      H1205   1.082       .  S
C1195      C1204   1.355       .  A
C1195      C1196   1.378   1_655  A
C1196      C1197   1.405       .  A
C1196      O1202   1.323       .  A
C1197      C1198   1.406       .  A
C1197      H1206   1.082       .  S
C1198      C1201   1.362       .  A
O1199      C1200   1.331       .  A
C1200      C1201   1.393   1_655  A
C1201      H1207   1.082       .  S
O1202      C1203   1.333   1_455  A
C1203      C1204   1.397       .  A
C1204      H1208   1.080       .  S
C1209      C1214   1.378   1_455  A
C1209      C1210   1.405       .  A
C1209      O1215   1.322       .  A
C1210      C1211   1.406       .  A
C1210      H1221   1.082       .  S
C1211      C1220   1.363       .  A
C1211      C1212   1.380   1_455  A
C1212      C1213   1.406       .  A
C1212      O1218   1.323       .  A
C1213      C1214   1.406       .  A
C1213      H1222   1.082       .  S
C1214      C1217   1.361       .  A
O1215      C1216   1.334   1_455  A
C1216      C1217   1.400       .  A
C1217      H1223   1.082       .  S
O1218      C1219   1.333       .  A
C1219      C1220   1.393   1_655  A
C1220      H1224   1.083       .  S
C1225      C1230   1.381       .  A
C1225      C1226   1.404       .  A
C1225      O1231   1.319       .  A
C1226      C1227   1.403       .  A
C1226      H1237   1.082       .  S
C1227      C1236   1.361       .  A
C1227      C1228   1.379       .  A
C1228      C1229   1.401       .  A
C1228      O1234   1.315       .  A
C1229      C1230   1.399       .  A
C1229      H1238   1.082       .  S
C1230      C1233   1.360       .  A
O1231      C1232   1.330       .  A
C1232      C1233   1.387       .  A
C1233      H1239   1.082       .  S
O1234      C1235   1.332       .  A
C1235      C1236   1.397       .  A
C1236      H1240   1.082       .  S
C1241      C1246   1.379       .  A
C1241      C1242   1.412       .  A
C1241      O1247   1.323       .  A
C1242      C1243   1.410       .  A
C1242      H1253   1.082       .  S
C1243      C1252   1.373       .  A
C1243      C1244   1.378       .  A
C1244      C1245   1.400       .  A
C1244      O1250   1.312       .  A
C1245      C1246   1.397       .  A
C1245      H1254   1.082       .  S
C1246      C1249   1.359       .  A
O1247      C1248   1.335       .  A
C1248      C1249   1.389       .  A
C1249      H1255   1.083       .  S
O1250      C1251   1.333       .  A
C1251      C1252   1.401       .  A
C1252      H1256   1.082       .  S
C1257      C1262   1.381       .  A
C1257      C1258   1.403       .  A
C1257      O1263   1.314       .  A
C1258      C1259   1.401       .  A
C1258      H1269   1.082       .  S
C1259      C1268   1.364       .  A
C1259      C1260   1.379       .  A
C1260      C1261   1.399       .  A
C1260      O1266   1.310       .  A
C1261      C1262   1.395       .  A
C1261      H1270   1.082       .  S
C1262      C1265   1.358       .  A
O1263      C1264   1.330       .  A
C1264      C1265   1.387       .  A
C1265      H1271   1.083       .  S
O1266      C1267   1.332       .  A
C1267      C1268   1.396       .  A
C1268      H1272   1.082       .  S
C1273      C1278   1.379       .  A
C1273      C1274   1.411       .  A
C1273      O1279   1.324       .  A
C1274      C1275   1.409       .  A
C1274      H1285   1.082       .  S
C1275      C1284   1.372       .  A
C1275      C1276   1.378       .  A
C1276      C1277   1.407       .  A
C1276      O1282   1.318       .  A
C1277      C1278   1.404       .  A
C1277      H1286   1.082       .  S
C1278      C1281   1.367       .  A
O1279      C1280   1.334       .  A
C1280      C1281   1.391       .  A
C1281      H1287   1.082       .  S
O1282      C1283   1.336       .  A
C1283      C1284   1.400       .  A
C1284      H1288   1.082       .  S
C1289      C1294   1.380       .  A
C1289      C1290   1.405       .  A
C1289      O1295   1.318       .  A
C1290      C1291   1.404       .  A
C1290      H1301   1.082       .  S
C1291      C1300   1.365       .  A
C1291      C1292   1.379       .  A
C1292      C1293   1.400       .  A
C1292      O1298   1.312       .  A
C1293      C1294   1.398       .  A
C1293      H1302   1.082       .  S
C1294      C1297   1.360       .  A
O1295      C1296   1.331       .  A
C1296      C1297   1.388       .  A
C1297      H1303   1.083       .  S
O1298      C1299   1.332       .  A
C1299      C1300   1.399       .  A
C1300      H1304   1.082       .  S
C1305      C1310   1.380       .  A
C1305      C1306   1.398       .  A
C1305      O1311   1.311       .  A
C1306      C1307   1.396       .  A
C1306      H1317   1.082       .  S
C1307      C1316   1.357       .  A
C1307      C1308   1.381       .  A
C1308      C1309   1.403       .  A
C1308      O1314   1.316       .  A
C1309      C1310   1.401       .  A
C1309      H1318   1.082       .  S
C1310      C1313   1.361       .  A
O1311      C1312   1.331       .  A
C1312      C1313   1.395       .  A
C1313      H1319   1.082       .  S
O1314      C1315   1.330       .  A
C1315      C1316   1.388       .  A
C1316      H1320   1.083       .  S
C1321      C1326   1.378       .  A
C1321      C1322   1.402       .  A
C1321      O1327   1.318       .  A
C1322      C1323   1.402       .  A
C1322      H1333   1.082       .  S
C1323      C1332   1.359       .  A
C1323      C1324   1.381       .  A
C1324      C1325   1.402       .  A
C1324      O1330   1.319       .  A
C1325      C1326   1.402       .  A
C1325      H1334   1.082       .  S
C1326      C1329   1.357       .  A
O1327      C1328   1.333       .  A
C1328      C1329   1.400       .  A
C1329      H1335   1.082   1_565  S
O1330      C1331   1.330       .  A
C1331      C1332   1.391       .  A
C1332      H1336   1.083       .  S
C1337      C1342   1.380       .  A
C1337      C1338   1.410       .  A
C1337      O1343   1.320       .  A
C1338      C1339   1.407       .  A
C1338      H1349   1.082       .  S
C1339      C1348   1.371       .  A
C1339      C1340   1.379       .  A
C1340      C1341   1.394       .  A
C1340      O1346   1.306       .  A
C1341      C1342   1.392       .  A
C1341      H1350   1.083       .  S
C1342      C1345   1.354       .  A
O1343      C1344   1.334       .  A
C1344      C1345   1.385       .  A
C1345      H1351   1.083       .  S
O1346      C1347   1.328       .  A
C1347      C1348   1.400       .  A
C1348      H1352   1.082       .  S
C1353      C1358   1.379       .  A
C1353      C1354   1.400       .  A
C1353      O1359   1.315       .  A
C1354      C1355   1.399       .  A
C1354      H1365   1.082       .  S
C1355      C1364   1.359       .  A
C1355      C1356   1.380       .  A
C1356      C1357   1.404       .  A
C1356      O1362   1.318       .  A
C1357      C1358   1.404       .  A
C1357      H1366   1.082       .  S
C1358      C1361   1.362       .  A
O1359      C1360   1.332       .  A
C1360      C1361   1.397       .  A
C1361      H1367   1.082       .  S
O1362      C1363   1.332       .  A
C1363      C1364   1.389       .  A
C1364      H1368   1.083       .  S
C1369      C1374   1.378       .  A
C1369      C1370   1.399       .  A
C1369      O1375   1.316       .  A
C1370      C1371   1.400       .  A
C1370      H1381   1.082       .  S
C1371      C1380   1.357       .  A
C1371      C1372   1.380       .  A
C1372      C1373   1.407       .  A
C1372      O1378   1.323       .  A
C1373      C1374   1.407       .  A
C1373      H1382   1.082       .  S
C1374      C1377   1.362       .  A
O1375      C1376   1.331       .  A
C1376      C1377   1.402       .  A
C1377      H1383   1.081       .  S
O1378      C1379   1.334       .  A
C1379      C1380   1.390       .  A
C1380      H1384   1.083       .  S
C1385      C1390   1.379       .  A
C1385      C1386   1.407       .  A
C1385      O1391   1.323       .  A
C1386      C1387   1.407       .  A
C1386      H1397   1.082       .  S
C1387      C1396   1.365       .  A
C1387      C1388   1.380       .  A
C1388      C1389   1.405       .  A
C1388      O1394   1.323       .  A
C1389      C1390   1.405       .  A
C1389      H1398   1.082       .  S
C1390      C1393   1.361       .  A
O1391      C1392   1.334       .  A
C1392      C1393   1.396       .  A
C1393      H1399   1.082       .  S
O1394      C1395   1.333       .  A
C1395      C1396   1.395       .  A
C1396      H1400   1.082       .  S
C1401      C1406   1.381       .  A
C1401      C1402   1.405       .  A
C1401      O1407   1.325       .  A
C1402      C1403   1.407       .  A
C1402      H1413   1.082       .  S
C1403      C1412   1.359       .  A
C1403      C1404   1.380       .  A
C1404      C1405   1.396       .  A
C1404      O1410   1.316       .  A
C1405      C1406   1.397       .  A
C1405      H1414   1.082       .  S
C1406      C1409   1.349       .  A
O1407      C1408   1.332       .  A
C1408      C1409   1.390       .  A
C1409      H1415   1.083       .  S
O1410      C1411   1.329       .  A
C1411      C1412   1.399       .  A
C1412      H1416   1.082       .  S
C1417      C1422   1.378   1_556  A
C1417      C1418   1.404       .  A
C1417      O1423   1.317       .  A
C1418      C1419   1.403       .  A
C1418      H1429   1.082       .  S
C1419      C1428   1.363       .  A
C1419      C1420   1.380   1_556  A
C1420      C1421   1.406       .  A
C1420      O1426   1.321       .  A
C1421      C1422   1.405       .  A
C1421      H1430   1.082       .  S
C1422      C1425   1.363       .  A
O1423      C1424   1.334       .  A
C1424      C1425   1.398   1_556  A
C1425      H1431   1.082       .  S
O1426      C1427   1.333   1_554  A
C1427      C1428   1.392       .  A
C1428      H1432   1.083       .  S
C1433      C1438   1.378       .  A
C1433      C1434   1.403       .  A
C1433      O1439   1.319       .  A
C1434      C1435   1.403       .  A
C1434      H1445   1.082       .  S
C1435      C1444   1.359       .  A
C1435      C1436   1.381       .  A
C1436      C1437   1.404       .  A
C1436      O1442   1.322       .  A
C1437      C1438   1.405       .  A
C1437      H1446   1.082       .  S
C1438      C1441   1.360       .  A
O1439      C1440   1.334       .  A
C1440      C1441   1.400       .  A
C1441      H1447   1.082       .  S
O1442      C1443   1.331       .  A
C1443      C1444   1.391       .  A
C1444      H1448   1.083       .  S
C1449      C1454   1.379   1_554  A
C1449      C1450   1.410       .  A
C1449      O1455   1.325       .  A
C1450      C1451   1.409       .  A
C1450      H1461   1.082       .  S
C1451      C1460   1.368       .  A
C1451      C1452   1.379   1_554  A
C1452      C1453   1.404       .  A
C1452      O1458   1.319       .  A
C1453      C1454   1.403       .  A
C1453      H1462   1.082       .  S
C1454      C1457   1.363       .  A
O1455      C1456   1.335   1_554  A
C1456      C1457   1.393       .  A
C1457      H1463   1.083       .  S
O1458      C1459   1.334   1_556  A
C1459      C1460   1.399       .  A
C1460      H1464   1.082       .  S
C1465      C1470   1.377       .  A
C1465      C1466   1.407       .  A
C1465      O1471   1.317       .  A
C1466      C1467   1.404       .  A
C1466      H1477   1.082       .  S
C1467      C1476   1.369       .  A
C1467      C1468   1.380       .  A
C1468      C1469   1.398       .  A
C1468      O1474   1.310       .  A
C1469      C1470   1.395       .  A
C1469      H1478   1.083       .  S
C1470      C1473   1.356       .  A
O1471      C1472   1.336       .  A
C1472      C1473   1.396       .  A
C1473      H1479   1.081       .  S
O1474      C1475   1.328       .  A
C1475      C1476   1.392       .  A
C1476      H1480   1.082       .  S
C1481      C1486   1.378       .  A
C1481      C1482   1.406       .  A
C1481      O1487   1.319       .  A
C1482      C1483   1.405       .  A
C1482      H1493   1.082       .  S
C1483      C1492   1.366       .  A
C1483      C1484   1.380       .  A
C1484      C1485   1.403       .  A
C1484      O1490   1.318       .  A
C1485      C1486   1.401       .  A
C1485      H1494   1.082       .  S
C1486      C1489   1.360       .  A
O1487      C1488   1.334       .  A
C1488      C1489   1.398       .  A
C1489      H1495   1.082       .  S
O1490      C1491   1.330       .  A
C1491      C1492   1.394       .  A
C1492      H1496   1.082       .  S
C1497      C1502   1.380       .  A
C1497      C1498   1.397       .  A
C1497      O1503   1.315       .  A
C1498      C1499   1.398       .  A
C1498      H1509   1.082       .  S
C1499      C1508   1.354       .  A
C1499      C1500   1.382       .  A
C1500      C1501   1.402       .  A
C1500      O1506   1.319       .  A
C1501      C1502   1.402       .  A
C1501      H1510   1.082       .  S
C1502      C1505   1.357       .  A
O1503      C1504   1.330       .  A
C1504      C1505   1.396       .  A
C1505      H1511   1.083       .  S
O1506      C1507   1.330       .  A
C1507      C1508   1.389       .  A
C1508      H1512   1.083       .  S
C1513      C1518   1.380   1_554  A
C1513      C1514   1.399       .  A
C1513      O1519   1.320       .  A
C1514      C1515   1.401       .  A
C1514      H1525   1.082       .  S
C1515      C1524   1.351       .  A
C1515      C1516   1.377   1_554  A
C1516      C1517   1.410       .  A
C1516      O1522   1.329       .  A
C1517      C1518   1.412       .  A
C1517      H1526   1.082       .  S
C1518      C1521   1.367       .  A
O1519      C1520   1.330   1_554  A
C1520      C1521   1.397       .  A
C1521      H1527   1.082       .  S
O1522      C1523   1.337   1_556  A
C1523      C1524   1.397       .  A
C1524      H1528   1.079       .  S
C1529      C1534   1.380   1_554  A
C1529      C1530   1.406       .  A
C1529      O1535   1.326       .  A
C1530      C1531   1.408       .  A
C1530      H1541   1.082       .  S
C1531      C1540   1.359       .  A
C1531      C1532   1.380   1_554  A
C1532      C1533   1.394       .  A
C1532      O1538   1.315       .  A
C1533      C1534   1.396       .  A
C1533      H1542   1.083       .  S
C1534      C1537   1.346       .  A
O1535      C1536   1.333       .  A
C1536      C1537   1.391   1_554  A
C1537      H1543   1.083       .  S
O1538      C1539   1.329   1_556  A
C1539      C1540   1.400       .  A
C1540      H1544   1.082       .  S
C1545      C1550   1.380   1_556  A
C1545      C1546   1.402       .  A
C1545      O1551   1.319       .  A
C1546      C1547   1.402       .  A
C1546      H1557   1.082       .  S
C1547      C1556   1.358       .  A
C1547      C1548   1.378   1_556  A
C1548      C1549   1.402       .  A
C1548      O1554   1.317       .  A
C1549      C1550   1.402       .  A
C1549      H1558   1.082       .  S
C1550      C1553   1.359       .  A
O1551      C1552   1.330   1_556  A
C1552      C1553   1.392       .  A
C1553      H1559   1.083       .  S
O1554      C1555   1.334       .  A
C1555      C1556   1.397   1_554  A
C1556      H1560   1.081       .  S
C1561      C1566   1.377   1_554  A
C1561      C1562   1.411       .  A
C1561      O1567   1.322       .  A
C1562      C1563   1.409       .  A
C1562      H1573   1.082       .  S
C1563      C1572   1.373       .  A
C1563      C1564   1.381       .  A
C1564      C1565   1.396   1_554  A
C1564      O1570   1.310   1_554  A
C1565      C1566   1.394       .  A
C1565      H1574   1.083       .  S
C1566      C1569   1.352       .  A
O1567      C1568   1.337       .  A
C1568      C1569   1.391   1_554  A
C1569      H1575   1.081       .  S
O1570      C1571   1.328   1_556  A
C1571      C1572   1.395       .  A
C1572      H1576   1.082       .  S
C1577      C1582   1.378   1_565  A
C1577      C1578   1.407       .  A
C1577      O1583   1.320       .  A
C1578      C1579   1.406       .  A
C1578      H1589   1.082       .  S
C1579      C1588   1.366       .  A
C1579      C1580   1.380   1_565  A
C1580      C1581   1.406       .  A
C1580      O1586   1.321       .  A
C1581      C1582   1.404       .  A
C1581      H1590   1.082       .  S
C1582      C1585   1.364       .  A
O1583      C1584   1.335   1_565  A
C1584      C1585   1.397       .  A
C1585      H1591   1.082       .  S
O1586      C1587   1.332       .  A
C1587      C1588   1.394   1_545  A
C1588      H1592   1.083       .  S
C1593      C1598   1.379   1_565  A
C1593      C1594   1.401       .  A
C1593      O1599   1.316       .  A
C1594      C1595   1.400       .  A
C1594      H1605   1.082       .  S
C1595      C1604   1.358       .  A
C1595      C1596   1.380   1_565  A
C1596      C1597   1.405       .  A
C1596      O1602   1.321       .  A
C1597      C1598   1.405       .  A
C1597      H1606   1.082       .  S
C1598      C1601   1.363       .  A
O1599      C1600   1.332   1_565  A
C1600      C1601   1.397       .  A
C1601      H1607   1.082       .  S
O1602      C1603   1.331       .  A
C1603      C1604   1.391   1_545  A
C1604      H1608   1.083       .  S
C1609      C1614   1.381       .  A
C1609      C1610   1.406       .  A
C1609      O1615   1.322       .  A
C1610      C1611   1.405       .  A
C1610      H1621   1.082       .  S
C1611      C1620   1.362       .  A
C1611      C1612   1.379       .  A
C1612      C1613   1.400       .  A
C1612      O1618   1.316       .  A
C1613      C1614   1.400       .  A
C1613      H1622   1.082       .  S
C1614      C1617   1.358       .  A
O1615      C1616   1.331       .  A
C1616      C1617   1.390       .  A
C1617      H1623   1.083       .  S
O1618      C1619   1.332       .  A
C1619      C1620   1.397       .  A
C1620      H1624   1.082       .  S
C1625      C1630   1.380       .  A
C1625      C1626   1.406       .  A
C1625      O1631   1.320       .  A
C1626      C1627   1.405       .  A
C1626      H1637   1.082       .  S
C1627      C1636   1.365       .  A
C1627      C1628   1.378       .  A
C1628      C1629   1.399       .  A
C1628      O1634   1.312       .  A
C1629      C1630   1.398       .  A
C1629      H1638   1.082       .  S
C1630      C1633   1.357       .  A
O1631      C1632   1.333       .  A
C1632      C1633   1.389       .  A
C1633      H1639   1.083       .  S
O1634      C1635   1.333       .  A
C1635      C1636   1.397       .  A
C1636      H1640   1.081       .  S
C1641      C1646   1.380       .  A
C1641      C1642   1.407       .  A
C1641      O1647   1.320       .  A
C1642      C1643   1.406       .  A
C1642      H1653   1.082       .  S
C1643      C1652   1.368       .  A
C1643      C1644   1.378       .  A
C1644      C1645   1.398       .  A
C1644      O1650   1.310       .  A
C1645      C1646   1.396       .  A
C1645      H1654   1.083       .  S
C1646      C1649   1.355       .  A
O1647      C1648   1.332       .  A
C1648      C1649   1.389       .  A
C1649      H1655   1.083       .  S
O1650      C1651   1.332       .  A
C1651      C1652   1.397       .  A
C1652      H1656   1.082       .  S
C1657      C1662   1.380       .  A
C1657      C1658   1.402       .  A
C1657      O1663   1.319       .  A
C1658      C1659   1.402       .  A
C1658      H1669   1.082       .  S
C1659      C1668   1.358       .  A
C1659      C1660   1.379       .  A
C1660      C1661   1.406       .  A
C1660      O1666   1.321       .  A
C1661      C1662   1.406       .  A
C1661      H1670   1.082       .  S
C1662      C1665   1.364       .  A
O1663      C1664   1.330       .  A
C1664      C1665   1.395       .  A
C1665      H1671   1.083       .  S
O1666      C1667   1.334       .  A
C1667      C1668   1.395       .  A
C1668      H1672   1.082       .  S
C1673      C1678   1.380       .  A
C1673      C1674   1.405       .  A
C1673      O1679   1.322       .  A
C1674      C1675   1.406       .  A
C1674      H1685   1.082       .  S
C1675      C1684   1.360       .  A
C1675      C1676   1.377       .  A
C1676      C1677   1.403       .  A
C1676      O1682   1.320       .  A
C1677      C1678   1.404       .  A
C1677      H1686   1.082       .  S
C1678      C1681   1.361       .  A
O1679      C1680   1.333       .  A
C1680      C1681   1.393       .  A
C1681      H1687   1.083       .  S
O1682      C1683   1.334       .  A
C1683      C1684   1.401       .  A
C1684      H1688   1.082       .  S
C1689      C1694   1.380       .  A
C1689      C1690   1.404       .  A
C1689      O1695   1.320       .  A
C1690      C1691   1.403       .  A
C1690      H1701   1.082       .  S
C1691      C1700   1.360       .  A
C1691      C1692   1.378       .  A
C1692      C1693   1.406       .  A
C1692      O1698   1.321       .  A
C1693      C1694   1.406       .  A
C1693      H1702   1.082       .  S
C1694      C1697   1.365       .  A
O1695      C1696   1.330       .  A
C1696      C1697   1.393       .  A
C1697      H1703   1.083       .  S
O1698      C1699   1.335       .  A
C1699      C1700   1.398       .  A
C1700      H1704   1.082       .  S
C1705      C1710   1.379       .  A
C1705      C1706   1.397       .  A
C1705      O1711   1.310       .  A
C1706      C1707   1.396       .  A
C1706      H1717   1.082       .  S
C1707      C1716   1.356       .  A
C1707      C1708   1.381       .  A
C1708      C1709   1.400       .  A
C1708      O1714   1.314       .  A
C1709      C1710   1.399       .  A
C1709      H1718   1.082       .  S
C1710      C1713   1.357       .  A
O1711      C1712   1.331       .  A
C1712      C1713   1.396       .  A
C1713      H1719   1.082       .  S
O1714      C1715   1.329       .  A
C1715      C1716   1.388       .  A
C1716      H1720   1.083       .  S
C1721      C1726   1.382       .  A
C1721      C1722   1.401       .  A
C1721      O1727   1.318       .  A
C1722      C1723   1.402       .  A
C1722      H1733   1.082       .  S
C1723      C1732   1.357       .  A
C1723      C1724   1.380       .  A
C1724      C1725   1.398       .  A
C1724      O1730   1.315       .  A
C1725      C1726   1.397       .  A
C1725      H1734   1.082       .  S
C1726      C1729   1.353       .  A
O1727      C1728   1.329       .  A
C1728      C1729   1.386       .  A
C1729      H1735   1.083       .  S
O1730      C1731   1.329       .  A
C1731      C1732   1.396       .  A
C1732      H1736   1.083       .  S
C1737      C1742   1.380       .  A
C1737      C1738   1.404       .  A
C1737      O1743   1.322       .  A
C1738      C1739   1.404       .  A
C1738      H1749   1.082       .  S
C1739      C1748   1.358       .  A
C1739      C1740   1.379       .  A
C1740      C1741   1.408       .  A
C1740      O1746   1.325       .  A
C1741      C1742   1.409       .  A
C1741      H1750   1.082       .  S
C1742      C1745   1.366       .  A
O1743      C1744   1.332       .  A
C1744      C1745   1.395       .  A
C1745      H1751   1.082       .  S
O1746      C1747   1.335       .  A
C1747      C1748   1.398       .  A
C1748      H1752   1.083       .  S
C1753      C1758   1.381       .  A
C1753      C1754   1.397       .  A
C1753      O1759   1.318       .  A
C1754      C1755   1.398       .  A
C1754      H1765   1.082       .  S
C1755      C1764   1.351       .  A
C1755      C1756   1.376       .  A
C1756      C1757   1.410       .  A
C1756      O1762   1.325       .  A
C1757      C1758   1.411       .  A
C1757      H1766   1.082       .  S
C1758      C1761   1.367       .  A
O1759      C1760   1.327       .  A
C1760      C1761   1.398       .  A
C1761      H1767   1.083       .  S
O1762      C1763   1.338       .  A
C1763      C1764   1.395       .  A
C1764      H1768   1.078       .  S
C1769      C1774   1.378       .  A
C1769      C1770   1.408       .  A
C1769      O1775   1.323       .  A
C1770      C1771   1.407       .  A
C1770      H1781   1.082       .  S
C1771      C1780   1.366       .  A
C1771      C1772   1.380       .  A
C1772      C1773   1.402       .  A
C1772      O1778   1.319       .  A
C1773      C1774   1.402       .  A
C1773      H1782   1.082       .  S
C1774      C1777   1.358       .  A
O1775      C1776   1.336       .  A
C1776      C1777   1.398       .  A
C1777      H1783   1.081       .  S
O1778      C1779   1.330       .  A
C1779      C1780   1.394       .  A
C1780      H1784   1.082       .  S
C1785      C1790   1.377       .  A
C1785      C1786   1.407       .  A
C1785      O1791   1.320       .  A
C1786      C1787   1.406       .  A
C1786      H1797   1.082       .  S
C1787      C1796   1.368       .  A
C1787      C1788   1.380       .  A
C1788      C1789   1.407       .  A
C1788      O1794   1.320       .  A
C1789      C1790   1.405       .  A
C1789      H1798   1.082       .  S
C1790      C1793   1.365       .  A
O1791      C1792   1.335       .  A
C1792      C1793   1.398       .  A
C1793      H1799   1.082       .  S
O1794      C1795   1.332       .  A
C1795      C1796   1.393       .  A
C1796      H1800   1.083       .  S
C1801      C1806   1.381   1_545  A
C1801      C1802   1.398       .  A
C1801      O1807   1.313       .  A
C1802      C1803   1.397       .  A
C1802      H1813   1.083       .  S
C1803      C1812   1.354       .  A
C1803      C1804   1.378   1_545  A
C1804      C1805   1.406       .  A
C1804      O1810   1.320       .  A
C1805      C1806   1.405       .  A
C1805      H1814   1.082       .  S
C1806      C1809   1.365       .  A
O1807      C1808   1.328       .  A
C1808      C1809   1.392   1_545  A
C1809      H1815   1.082       .  S
O1810      C1811   1.334   1_565  A
C1811      C1812   1.396       .  A
C1812      H1816   1.082       .  S
C1817      C1822   1.380   1_565  A
C1817      C1818   1.404       .  A
C1817      O1823   1.323       .  A
C1818      C1819   1.405       .  A
C1818      H1829   1.082       .  S
C1819      C1828   1.358       .  A
C1819      C1820   1.378   1_565  A
C1820      C1821   1.408       .  A
C1820      O1826   1.326       .  A
C1821      C1822   1.409       .  A
C1821      H1830   1.082       .  S
C1822      C1825   1.365       .  A
O1823      C1824   1.332   1_565  A
C1824      C1825   1.396       .  A
C1825      H1831   1.082       .  S
O1826      C1827   1.336       .  A
C1827      C1828   1.397   1_545  A
C1828      H1832   1.082       .  S
C1833      C1838   1.379       .  A
C1833      C1834   1.405       .  A
C1833      O1839   1.317       .  A
C1834      C1835   1.403       .  A
C1834      H1845   1.082       .  S
C1835      C1844   1.365       .  A
C1835      C1836   1.381       .  A
C1836      C1837   1.399       .  A
C1836      O1842   1.313       .  A
C1837      C1838   1.398       .  A
C1837      H1846   1.082       .  S
C1838      C1841   1.356       .  A
O1839      C1840   1.334       .  A
C1840      C1841   1.396       .  A
C1841      H1847   1.082       .  S
O1842      C1843   1.328       .  A
C1843      C1844   1.390       .  A
C1844      H1848   1.082       .  S
C1849      C1854   1.377       .  A
C1849      C1850   1.404       .  A
C1849      O1855   1.316       .  A
C1850      C1851   1.402       .  A
C1850      H1861   1.082       .  S
C1851      C1860   1.363       .  A
C1851      C1852   1.381       .  A
C1852      C1853   1.400       .  A
C1852      O1858   1.314       .  A
C1853      C1854   1.399       .  A
C1853      H1862   1.082       .  S
C1854      C1857   1.357       .  A
O1855      C1856   1.336       .  A
C1856      C1857   1.395       .  A
C1857      H1863   1.081       .  S
O1858      C1859   1.329       .  A
C1859      C1860   1.391       .  A
C1860      H1864   1.082       .  S
C1865      C1870   1.382       .  A
C1865      C1866   1.401       .  A
C1865      O1871   1.317       .  A
C1866      C1867   1.401       .  A
C1866      H1877   1.082       .  S
C1867      C1876   1.356       .  A
C1867      C1868   1.379       .  A
C1868      C1869   1.397       .  A
C1868      O1874   1.314       .  A
C1869      C1870   1.396       .  A
C1869      H1878   1.082       .  S
C1870      C1873   1.354       .  A
O1871      C1872   1.328       .  A
C1872      C1873   1.385       .  A
C1873      H1879   1.083       .  S
O1874      C1875   1.330       .  A
C1875      C1876   1.399       .  A
C1876      H1880   1.082       .  S
C1881      C1886   1.381       .  A
C1881      C1882   1.403       .  A
C1881      O1887   1.319       .  A
C1882      C1883   1.403       .  A
C1882      H1893   1.082       .  S
C1883      C1892   1.358       .  A
C1883      C1884   1.379       .  A
C1884      C1885   1.403       .  A
C1884      O1890   1.320       .  A
C1885      C1886   1.403       .  A
C1885      H1894   1.082       .  S
C1886      C1889   1.361       .  A
O1887      C1888   1.331       .  A
C1888      C1889   1.390       .  A
C1889      H1895   1.082       .  S
O1890      C1891   1.333       .  A
C1891      C1892   1.397       .  A
C1892      H1896   1.082       .  S
C1897      C1902   1.377       .  A
C1897      C1898   1.407       .  A
C1897      O1903   1.325       .  A
C1898      C1899   1.409       .  A
C1898      H1909   1.082       .  S
C1899      C1908   1.364       .  A
C1899      C1900   1.379       .  A
C1900      C1901   1.407       .  A
C1900      O1906   1.326       .  A
C1901      C1902   1.408       .  A
C1901      H1910   1.082       .  S
C1902      C1905   1.361       .  A
O1903      C1904   1.336       .  A
C1904      C1905   1.401       .  A
C1905      H1911   1.082       .  S
O1906      C1907   1.334       .  A
C1907      C1908   1.396       .  A
C1908      H1912   1.082       .  S
C1913      C1918   1.380       .  A
C1913      C1914   1.407       .  A
C1913      O1919   1.322       .  A
C1914      C1915   1.405       .  A
C1914      H1925   1.082       .  S
C1915      C1924   1.365       .  A
C1915      C1916   1.379       .  A
C1916      C1917   1.401       .  A
C1916      O1922   1.315       .  A
C1917      C1918   1.400       .  A
C1917      H1926   1.082       .  S
C1918      C1921   1.359       .  A
O1919      C1920   1.333       .  A
C1920      C1921   1.390       .  A
C1921      H1927   1.083       .  S
O1922      C1923   1.332       .  A
C1923      C1924   1.396       .  A
C1924      H1928   1.082       .  S
C1929      C1934   1.382       .  A
C1929      C1930   1.399       .  A
C1929      O1935   1.316       .  A
C1930      C1931   1.399       .  A
C1930      H1941   1.082       .  S
C1931      C1940   1.357       .  A
C1931      C1932   1.380       .  A
C1932      C1933   1.403       .  A
C1932      O1938   1.316       .  A
C1933      C1934   1.401       .  A
C1933      H1942   1.083       .  S
C1934      C1937   1.359       .  A
O1935      C1936   1.327       .  A
C1936      C1937   1.389       .  A
C1937      H1943   1.083       .  S
O1938      C1939   1.334       .  A
C1939      C1940   1.393       .  A
C1940      H1944   1.082       .  S
C1945      C1950   1.380       .  A
C1945      C1946   1.407       .  A
C1945      O1951   1.323       .  A
C1946      C1947   1.407       .  A
C1946      H1957   1.082       .  S
C1947      C1956   1.364       .  A
C1947      C1948   1.380       .  A
C1948      C1949   1.401       .  A
C1948      O1954   1.318       .  A
C1949      C1950   1.401       .  A
C1949      H1958   1.082       .  S
C1950      C1953   1.360       .  A
O1951      C1952   1.333       .  A
C1952      C1953   1.390       .  A
C1953      H1959   1.083       .  S
O1954      C1955   1.331       .  A
C1955      C1956   1.398       .  A
C1956      H1960   1.082       .  S
C1961      C1966   1.379       .  A
C1961      C1962   1.406       .  A
C1961      O1967   1.328       .  A
C1962      C1963   1.409       .  A
C1962      H1973   1.082       .  S
C1963      C1972   1.362       .  A
C1963      C1964   1.381       .  A
C1964      C1965   1.398       .  A
C1964      O1970   1.319       .  A
C1965      C1966   1.401       .  A
C1965      H1974   1.083       .  S
C1966      C1969   1.348       .  A
O1967      C1968   1.335       .  A
C1968      C1969   1.398       .  A
C1969      H1975   1.081       .  S
O1970      C1971   1.328       .  A
C1971      C1972   1.393       .  A
C1972      H1976   1.083       .  S
C1977      C1982   1.382       .  A
C1977      C1978   1.399       .  A
C1977      O1983   1.317       .  A
C1978      C1979   1.400       .  A
C1978      H1989   1.082       .  S
C1979      C1988   1.356       .  A
C1979      C1980   1.380       .  A
C1980      C1981   1.402       .  A
C1980      O1986   1.317       .  A
C1981      C1982   1.401       .  A
C1981      H1990   1.082       .  S
C1982      C1985   1.358       .  A
O1983      C1984   1.327       .  A
C1984      C1985   1.390       .  A
C1985      H1991   1.083       .  S
O1986      C1987   1.333       .  A
C1987      C1988   1.394       .  A
C1988      H1992   1.083       .  S
