geometry optimzed in LAMMPS
_audit_creation_date              2020-11-30 
_audit_creation_method            'lammps2cif' 
_symmetry_space_group_name_H-M    'P1' 
_symmetry_Int_Tables_number       1 
_symmetry_cell_setting            triclinic 
loop_ 
_symmetry_equiv_pos_as_xyz 
  x,y,z 
_cell_length_a                    57.25735764 
_cell_length_b                    57.58300112404847 
_cell_length_c                    43.787652748794265 
_cell_angle_alpha                 90.38027435183439 
_cell_angle_beta                  90.08994540205528 
_cell_angle_gamma                 89.21993936593576 
loop_ 
_atom_site_label 
_atom_site_type_symbol 
_atom_site_fract_x 
_atom_site_fract_y 
_atom_site_fract_z 
_atom_site_charge 
Zr1        Zr  0.43818399  0.66910374  0.10897617     2.17500
O2          O  0.46187645  0.69439011  0.14105149    -0.51100
O3          O  0.40194639  0.69298399  0.10315449    -0.74300
O4          O  0.45109706  0.70303779  0.08196940    -0.81100
O5          O  0.40439919  0.64093509  0.16833263    -0.82900
O6          O  0.45524691  0.69179549  0.03269540    -0.78500
O7          O  0.42863685  0.67105972  0.16214195    -0.90100
O8          O  0.39794753  0.68284170  0.05479998    -0.76100
O9          O  0.42633883  0.66540516  0.05720589    -0.85600
O10         O  0.40337246  0.64647132  0.10905352    -0.85300
O11         O  0.47128530  0.64968184  0.08506929    -0.72000
O12         O  0.45083926  0.63231668  0.13073598    -0.84200
Zr13       Zr  0.43425971  0.58841208  0.05218355     2.26400
Zr14       Zr  0.45902126  0.64831665  0.03288212     2.06300
Zr15       Zr  0.41559940  0.61079952  0.13194716     2.10000
Zr16       Zr  0.39237180  0.64174544  0.05705754     1.78800
O17         O  0.43565206  0.59619803  0.17711005    -0.93000
O18         O  0.36003002  0.66066247  0.03023683    -0.40800
O19         O  0.40265141  0.60589910  0.07995494    -0.77400
O20         O  0.42401647  0.62518052  0.02972200    -0.96100
O21         O  0.46945660  0.60990460  0.05115589    -0.89400
O22         O  0.44543547  0.59025140  0.10445723    -0.92200
C23         C  0.39104049  0.69467719  0.07759565     1.01500
C24         C  0.41099974  0.66166319  0.17439134     1.14500
C25         C  0.45379676  0.70773630  0.05368200     1.05200
O26         O  0.46893565  0.66666133  0.98470624    -0.94400
O27         O  0.45597910  0.62614852  0.98608938    -0.90100
O28         O  0.44425696  0.58990134  0.99844267    -0.83300
C29         C  0.45098720  0.60513611  0.97914072     1.11900
O30         O  0.51260190  0.63080048  0.12835789    -0.96400
Zr31       Zr  0.48087170  0.61031971  0.10326323     1.88900
O32         O  0.46154914  0.55604208  0.05883522    -0.73000
O33         O  0.50151355  0.64889643  0.03535083    -0.52300
O34         O  0.51629179  0.60622923  0.07283029    -0.97000
O35         O  0.49053338  0.59593808  0.15400134    -0.54200
O36         O  0.48593434  0.56657233  0.09706693    -0.73500
C37         C  0.47723637  0.55096994  0.07876317     0.98800
O38         O  0.41128190  0.56172584  0.02124344    -0.62300
O39         O  0.37786738  0.60242097  0.15483818    -0.57200
O40         O  0.40969922  0.56197560  0.07890592    -0.93800
O41         O  0.40079064  0.57193715  0.12797282    -0.92300
O42         O  0.35867916  0.63352000  0.08900171    -0.92600
O43         O  0.37757009  0.61896271  0.01408588    -0.91400
C44         C  0.40053510  0.55808931  0.10507038     1.17700
H45         H  0.39059038  0.65386699  0.11987836     0.33600
H46         H  0.41846048  0.62388719  0.00903804     0.44500
H47         H  0.44699185  0.57509289  0.11355968     0.38000
H48         H  0.48474685  0.65948241  0.08731696     0.34500
H49         H  0.44229376  0.68773629  0.55071318     0.26200
H50         H  0.50668275  0.63814275  0.01889494     0.32200
H51         H  0.52371946  0.59156427  0.07982193     0.38100
H52         H  0.35800750  0.61636505  0.08989739     0.32600
H53         H  0.38074442  0.60217272  0.17714160     0.31400
H54         H  0.43607449  0.57912490  0.17427758     0.33100
H55         H  0.50597006  0.58818465  0.15159556     0.32100
H56         H  0.45851981  0.62186446  0.51698542     0.36100
H57         H  0.42276895  0.55058211  0.01241685     0.28800
H58         H  0.45452304  0.71002223  0.13978307     0.33000
H59         H  0.50487835  0.64417767  0.13871070     0.35900
H60         H  0.36812272  0.61651828  0.15145572     0.28500
H61         H  0.40521652  0.57075942  0.00372201     0.41400
H62         H  0.45385893  0.67235672  0.97628879     0.31400
H63         H  0.34727252  0.64924380  0.02915533     0.39100
H64         H  0.47963440  0.58299654  0.15730484     0.30900
H65         H  0.50572815  0.66450945  0.02799643     0.31000
H66         H  0.47699411  0.69572814  0.13029482     0.31200
Zr67       Zr  0.39494215  0.84853393  0.01847268     2.17500
O68         O  0.41908454  0.81305887  0.50949745    -0.51100
O69         O  0.36377026  0.82970054  0.04892360    -0.74300
O70         O  0.42001060  0.81347321  0.02223683    -0.81100
O71         O  0.34534414  0.88552033  0.99515915    -0.82900
O72         O  0.45045967  0.82247196  0.05292812    -0.78500
O73         O  0.37097740  0.86008580  0.97580835    -0.90100
O74         O  0.36051482  0.84815351  0.09477452    -0.76100
O75         O  0.41080423  0.85159051  0.06838936    -0.85600
O76         O  0.37069423  0.87651003  0.04444912    -0.85300
O77         O  0.43429928  0.86209519  0.00998543    -0.72000
O78         O  0.39806060  0.88440718  0.98983723    -0.84200
Zr79       Zr  0.42857652  0.92765938  0.06063009     2.26400
Zr80       Zr  0.44983144  0.86472316  0.06052993     2.06300
Zr81       Zr  0.37360042  0.91205514  0.01619652     2.10000
Zr82       Zr  0.38699391  0.87973954  0.09425356     1.78800
O83         O  0.39845625  0.92165012  0.48282914    -0.93000
O84         O  0.40066093  0.85684946  0.13754375    -0.40800
O85         O  0.38931023  0.91494471  0.06686568    -0.77400
O86         O  0.42601658  0.89208882  0.08855258    -0.96100
O87         O  0.45345961  0.90102209  0.03402760    -0.89400
O88         O  0.41240378  0.92620512  0.01047289    -0.92200
C89         C  0.35437001  0.83264091  0.07556728     1.01500
C90         C  0.35003312  0.86700276  0.98013544     1.14500
C91         C  0.43837782  0.80772554  0.03758735     1.05200
O92         O  0.46418815  0.84383757  0.10515075    -0.94400
O93         O  0.47344764  0.88656357  0.09625654    -0.90100
O94         O  0.46104384  0.92415378  0.09570286    -0.83300
C95         C  0.47398723  0.90761049  0.10603506     1.11900
O96         O  0.47521953  0.86962627  0.49089214    -0.96400
Zr97       Zr  0.43701087  0.89959443  0.98422493     1.88900
O98         O  0.45336249  0.95308376  0.03243993    -0.73000
O99         O  0.48704322  0.85862377  0.03462442    -0.52300
O100        O  0.49810889  0.89284466  0.53909777    -0.97000
O101        O  0.45292977  0.90710338  0.47466298    -0.54200
O102        O  0.45387507  0.93985027  0.98350776    -0.73500
C103        C  0.45848421  0.95538280  0.00424432     0.98800
O104        O  0.43032651  0.95423860  0.10401712    -0.62300
O105        O  0.33474204  0.92994306  0.01411616    -0.57200
O106        O  0.40146307  0.95953999  0.05112767    -0.93800
O107        O  0.36597914  0.94400998  0.05099638    -0.92300
O108        O  0.34904330  0.89542139  0.10951883    -0.92600
O109        O  0.38728145  0.90414405  0.13993783    -0.91400
C110        C  0.38016989  0.95971036  0.05961522     1.17700
H111        H  0.35451061  0.87219307  0.04580992     0.33600
H112        H  0.43155396  0.89404065  0.10921400     0.44500
H113        H  0.41206330  0.94121197  0.00076371     0.38000
H114        H  0.44307250  0.85054183  0.99857433     0.34500
H115        H  0.40475311  0.84143098  0.12879932     0.26200
H116        H  0.49347590  0.87437356  0.03226616     0.32200
H117        H  0.50104913  0.90512341  0.55452000     0.38100
H118        H  0.34263761  0.90259238  0.09074377     0.32600
H119        H  0.32959244  0.92851251  0.99259807     0.31400
H120        H  0.39469741  0.93838036  0.48543741     0.33100
H121        H  0.44726995  0.92341343  0.47542875     0.32100
H122        H  0.38779200  0.92024916  0.13217374     0.36100
H123        H  0.43206583  0.96988677  0.09513808     0.28800
H124        H  0.41341557  0.79832250  0.51815713     0.33000
H125        H  0.48500287  0.85879887  0.50306296     0.35900
H126        H  0.32450793  0.91937852  0.02560688     0.28500
H127        H  0.41452719  0.95418735  0.11310664     0.41400
H128        H  0.47922564  0.83667010  0.09870373     0.31400
H129        H  0.41587543  0.86360925  0.14328407     0.39100
H130        H  0.43950857  0.89824999  0.46664313     0.30900
H131        H  0.49726269  0.85118001  0.05009038     0.31000
H132        H  0.43630602  0.81138934  0.50906873     0.31200
Zr133      Zr  0.05666369  0.81421566  0.31720095     2.17500
O134        O  0.05345570  0.79555347  0.36683078    -0.51100
O135        O  0.07708781  0.78188261  0.29043966    -0.74300
O136        O  0.02620170  0.78591157  0.31524211    -0.81100
O137        O  0.11434288  0.83915008  0.33816466    -0.82900
O138        O  0.01052634  0.79257308  0.26886999    -0.78500
O139        O  0.09091473  0.80854658  0.34774402    -0.90100
O140        O  0.08646223  0.79411889  0.24290058    -0.76100
O141        O  0.04555873  0.81442272  0.26502696    -0.85600
O142        O  0.08726263  0.83209816  0.28964225    -0.85300
O143        O  0.02029736  0.83604593  0.31772616    -0.72000
O144        O  0.05915387  0.85231224  0.34031390    -0.84200
Zr145      Zr  0.04268755  0.89258480  0.25831880     2.26400
Zr146      Zr  0.00953781  0.83547011  0.26486834     2.06300
Zr147      Zr  0.09075497  0.86929154  0.31301257     2.10000
Zr148      Zr  0.07547247  0.83390166  0.23811948     1.78800
O149        O  0.10035825  0.88461862  0.36336453    -0.93000
O150        O  0.05891077  0.81443105  0.19362979    -0.40800
O151        O  0.07957762  0.87179904  0.25975615    -0.77400
O152        O  0.03972429  0.85422301  0.23657689    -0.96100
O153        O  0.01155115  0.87458560  0.28470078    -0.89400
O154        O  0.05493953  0.89223251  0.31047299    -0.92200
C155        C  0.08612181  0.77873353  0.26368596     1.01500
C156        C  0.11059523  0.81869094  0.34863314     1.14500
C157        C  0.01574803  0.77899618  0.29120768     1.05200
O158        O  0.98375154  0.81528759  0.22963279    -0.94400
O159        O  0.99587336  0.85623594  0.21994311    -0.90100
O160        O  0.01662555  0.88924089  0.21432730    -0.83300
C161        C  0.00148487  0.87446957  0.20502045     1.11900
O162        O  0.00844922  0.85725832  0.38246909    -0.96400
Zr163      Zr  0.02350405  0.87573933  0.33681093     1.88900
O164        O  0.02641698  0.92708353  0.28411041    -0.73000
O165        O  0.97264506  0.83889712  0.29223018    -0.52300
O166        O  0.98127491  0.88052814  0.34074853    -0.97000
O167        O  0.03975328  0.89266757  0.38320635    -0.54200
O168        O  0.01496932  0.91862428  0.33200253    -0.73500
C169        C  0.01780945  0.93336282  0.31006781     0.98800
O170        O  0.03765752  0.92139463  0.21833746    -0.62300
O171        O  0.13066742  0.87436225  0.29533826    -0.57200
O172        O  0.08303736  0.90512278  0.25643246    -0.93800
O173        O  0.09913282  0.90904107  0.30204860    -0.92300
O174        O  0.11744521  0.83246893  0.22937424    -0.92600
O175        O  0.08591895  0.85296468  0.19064984    -0.91400
C176        C  0.09184177  0.91801114  0.27728313     1.17700
H177        H  0.10162389  0.82313743  0.29008376     0.33600
H178        H  0.03749484  0.85371719  0.21479400     0.44500
H179        H  0.05766442  0.90763075  0.31840714     0.38000
H180        H  0.00884516  0.82790609  0.32962165     0.34500
H181        H  0.07216392  0.80571924  0.18434996     0.26200
H182        H  0.96527580  0.85326974  0.28420234     0.32200
H183        H  0.97676477  0.89051793  0.32332330     0.38100
H184        H  0.12291421  0.84805758  0.23548398     0.32600
H185        H  0.13971961  0.87770760  0.31411911     0.31400
H186        H  0.09024887  0.87607229  0.37760853     0.33100
H187        H  0.02703682  0.90265907  0.39151798     0.32100
H188        H  0.07607474  0.86722882  0.19021266     0.36100
H189        H  0.05047371  0.91844110  0.20364458     0.28800
H190        H  0.05055147  0.77891746  0.36262460     0.33000
H191        H  0.02090133  0.84609799  0.38852974     0.35900
H192        H  0.13599792  0.85864729  0.28896853     0.28500
H193        H  0.04079305  0.93666940  0.22769980     0.41400
H194        H  0.99437256  0.80783748  0.21450865     0.31400
H195        H  0.04876949  0.80228225  0.20215773     0.39100
H196        H  0.05159025  0.90372615  0.37597029     0.30900
H197        H  0.96295658  0.82620412  0.28395413     0.31000
H198        H  0.03866716  0.80168468  0.37556063     0.31200
Zr199      Zr  0.06426582  0.63720872  0.30052401     2.17500
O200        O  0.07815985  0.66064572  0.25825032    -0.51100
O201        O  0.08527991  0.65735147  0.34338664    -0.74300
O202        O  0.04250842  0.67347765  0.29732420    -0.81100
O203        O  0.11713139  0.59688930  0.29147145    -0.82900
O204        O  0.00458759  0.66615274  0.30835190    -0.78500
O205        O  0.10507768  0.63462048  0.28928328    -0.90100
O206        O  0.08066369  0.63633808  0.38639016    -0.76100
O207        O  0.03908034  0.63508973  0.34320607    -0.85600
O208        O  0.08064825  0.60760576  0.33156568    -0.85300
O209        O  0.02738679  0.62587303  0.27771275    -0.72000
O210        O  0.06422902  0.60288488  0.26790311    -0.84200
Zr211      Zr  0.01968527  0.55965658  0.32433582     2.26400
Zr212      Zr  0.00230604  0.62474862  0.32126788     2.06300
Zr213      Zr  0.08203102  0.57407254  0.29952125     2.10000
Zr214      Zr  0.05540423  0.60472491  0.37390375     1.78800
O215        O  0.09670051  0.56195309  0.24964886    -0.93000
O216        O  0.03413268  0.62688071  0.41281846    -0.40800
O217        O  0.05757838  0.56972238  0.34382356    -0.77400
O218        O  0.01855631  0.59527028  0.35380072    -0.96100
O219        O  0.00182271  0.58860506  0.29271490    -0.89400
O220        O  0.04492999  0.56173040  0.28140187    -0.92200
C221        C  0.08953865  0.65330970  0.37205281     1.01500
C222        C  0.12090288  0.61875345  0.28924342     1.14500
C223        C  0.02111311  0.67986270  0.30055661     1.05200
O224        O  0.98866007  0.63913751  0.37060300    -0.94400
O225        O  0.97139188  0.59676910  0.32604344    -0.90100
O226        O  0.98149877  0.56336037  0.34731110    -0.83300
C227        C  0.97055581  0.58279844  0.34845885     1.11900
O228        O  0.02529795  0.61382831  0.20481427    -0.96400
Zr229      Zr  0.02651237  0.58899621  0.24964275     1.88900
O230        O  0.99987257  0.53519581  0.28804400    -0.73000
O231        O  0.96717988  0.64240157  0.29946491    -0.52300
O232        O  0.98650105  0.59573179  0.23255969    -0.97000
O233        O  0.04867875  0.57568996  0.20530726    -0.54200
O234        O  0.01258141  0.54740745  0.24194550    -0.73500
C235        C  0.00318250  0.53186208  0.25949340     0.98800
O236        O  0.01126630  0.53378256  0.36668610    -0.62300
O237        O  0.11418896  0.55632274  0.32783263    -0.57200
O238        O  0.04362847  0.52499184  0.32164525    -0.93800
O239        O  0.07991414  0.53244555  0.30362683    -0.92300
O240        O  0.08847570  0.58961991  0.40299927    -0.92600
O241        O  0.04445352  0.57876686  0.41498952    -0.91400
C242        C  0.06424832  0.51867721  0.31340757     1.17700
H243        H  0.09602068  0.61132211  0.33904554     0.33600
H244        H  0.00911881  0.59389601  0.37172754     0.44500
H245        H  0.04713349  0.54715358  0.27077457     0.38000
H246        H  0.02202865  0.63796675  0.26410280     0.34500
H247        H  0.03170079  0.64250014  0.40394420     0.26200
H248        H  0.96001754  0.63001876  0.28692371     0.32200
H249        H  0.98316181  0.61221878  0.23770348     0.38100
H250        H  0.10100696  0.58713521  0.38774973     0.32600
H251        H  0.12656745  0.55345066  0.31243431     0.31400
H252        H  0.09879918  0.57657040  0.23825319     0.33100
H253        H  0.03709573  0.56773524  0.19223188     0.32100
H254        H  0.03788309  0.56505620  0.40449038     0.36100
H255        H  0.00555510  0.51933087  0.35702803     0.28800
H256        H  0.08054939  0.67641828  0.26675147     0.33000
H257        H  0.03816758  0.62490021  0.20802720     0.35900
H258        H  0.12031583  0.56892654  0.34093387     0.28500
H259        H  0.02660308  0.52945370  0.37560992     0.41400
H260        H  0.98105752  0.65427394  0.36611913     0.31400
H261        H  0.01834683  0.62010423  0.41345620     0.39100
H262        H  0.05876853  0.56297468  0.21312575     0.30900
H263        H  0.95640680  0.64462087  0.31693508     0.31000
H264        H  0.06462189  0.66221868  0.24429103     0.31200
Zr265      Zr  0.26619096  0.74379075  0.50775358     2.17500
O266        O  0.25951387  0.78193747  0.04121584    -0.51100
O267        O  0.29416722  0.73367845  0.02448018    -0.74300
O268        O  0.24744879  0.73630071  0.05538476    -0.81100
O269        O  0.30415708  0.77130862  0.44648302    -0.82900
O270        O  0.21396327  0.71525560  0.05339662    -0.78500
O271        O  0.29481581  0.77335078  0.49688643    -0.90100
O272        O  0.29665560  0.68564955  0.51153851    -0.76100
O273        O  0.24608922  0.70786367  0.50690312    -0.85600
O274        O  0.28632128  0.72157105  0.46973605    -0.85300
O275        O  0.22550112  0.75218331  0.49824940    -0.72000
O276        O  0.26217256  0.76494062  0.46152074    -0.84200
Zr277      Zr  0.22134627  0.71611687  0.41132451     2.26400
Zr278      Zr  0.20565529  0.71535179  0.49403854     2.06300
Zr279      Zr  0.28059284  0.74173928  0.42252220     2.10000
Zr280      Zr  0.26661845  0.68551222  0.47006892     1.78800
O281        O  0.30187767  0.76864721  0.39043182    -0.93000
O282        O  0.25458837  0.65518484  0.50503068    -0.40800
O283        O  0.26123124  0.70532548  0.42186640    -0.77400
O284        O  0.22601076  0.69283714  0.45633263    -0.96100
O285        O  0.20220481  0.73838806  0.44957458    -0.89400
O286        O  0.24084777  0.75219323  0.41218295    -0.92200
C287        C  0.30513307  0.70087207  0.53032716     1.01500
C288        C  0.30604324  0.78021815  0.47327787     1.14500
C289        C  0.23129597  0.72443694  0.06787423     1.05200
O290        O  0.19612213  0.67653770  0.51139219    -0.94400
O291        O  0.17149518  0.70265890  0.46169803    -0.90100
O292        O  0.18308890  0.70059493  0.41215526    -0.83300
C293        C  0.16767081  0.69847556  0.43285687     1.11900
O294        O  0.22617781  0.80716389  0.48662411    -0.96400
Zr295      Zr  0.22249282  0.77403561  0.45216969     1.88900
O296        O  0.19177412  0.74224548  0.38938595    -0.73000
O297        O  0.17057694  0.73270326  0.51656231    -0.52300
O298        O  0.18467744  0.78831094  0.47015872    -0.97000
O299        O  0.23861381  0.80784350  0.42692365    -0.54200
O300        O  0.19789837  0.77840938  0.40866729    -0.73500
C301        C  0.18719603  0.76410985  0.39153431     0.98800
O302        O  0.21778197  0.68139860  0.37952693    -0.62300
O303        O  0.31438496  0.71593086  0.41661729    -0.57200
O304        O  0.23834295  0.72167038  0.36250738    -0.93800
O305        O  0.27466133  0.73651591  0.36722243    -0.92300
O306        O  0.30075375  0.66954275  0.44387873    -0.92600
O307        O  0.25925332  0.64843223  0.44499598    -0.91400
C308        C  0.25740225  0.72903089  0.35130706     1.17700
H309        H  0.30281843  0.72000114  0.47395175     0.33600
H310        H  0.21820875  0.67822243  0.45338182     0.44500
H311        H  0.23938032  0.76041752  0.39310647     0.38000
H312        H  0.20980937  0.75938491  0.01890792     0.34500
H313        H  0.26872832  0.64533472  0.50787287     0.26200
H314        H  0.15798335  0.71809704  0.02817977     0.32200
H315        H  0.17511413  0.77422804  0.47238953     0.38100
H316        H  0.30734953  0.65792437  0.45817758     0.32600
H317        H  0.31026181  0.70561683  0.39930873     0.31400
H318        H  0.31375277  0.75909287  0.37952468     0.33100
H319        H  0.22495241  0.81607196  0.41798995     0.32100
H320        H  0.25203044  0.65264541  0.42519672     0.36100
H321        H  0.23404884  0.67690682  0.37428582     0.28800
H322        H  0.27155012  0.77742657  0.05641717     0.33000
H323        H  0.23643862  0.80153958  0.50329519     0.35900
H324        H  0.32693422  0.72583103  0.40859180     0.28500
H325        H  0.21271565  0.66906429  0.39361088     0.41400
H326        H  0.20425515  0.67487952  0.53123377     0.31400
H327        H  0.25240389  0.66314810  0.52494586     0.39100
H328        H  0.24725826  0.80150527  0.40909843     0.30900
H329        H  0.17403169  0.73699625  0.04279296     0.31000
H330        H  0.24454970  0.78158339  0.05247707     0.31200
Zr331      Zr  0.27471304  0.72051664  0.16155731     2.17500
O332        O  0.29397007  0.69325456  0.12737093    -0.51100
O333        O  0.29131679  0.75352959  0.13705913    -0.74300
O334        O  0.25451159  0.72191146  0.11217953    -0.81100
O335        O  0.32000406  0.71238645  0.22582062    -0.82900
O336        O  0.21494466  0.72043236  0.11735669    -0.78500
O337        O  0.31550062  0.71101401  0.17403000    -0.90100
O338        O  0.27485586  0.78528967  0.15930306    -0.76100
O339        O  0.24146584  0.74558369  0.16238014    -0.85600
O340        O  0.28232322  0.74735757  0.20195167    -0.85300
O341        O  0.24155713  0.69612745  0.16832995    -0.72000
O342        O  0.27929632  0.69846017  0.20704002    -0.84200
Zr343      Zr  0.22000623  0.72472618  0.25610580     2.26400
Zr344      Zr  0.20804097  0.72198843  0.17214529     2.06300
Zr345      Zr  0.28444255  0.72547553  0.24837675     2.10000
Zr346      Zr  0.24943158  0.77264400  0.20169105     1.78800
O347        O  0.30704820  0.69970412  0.28141472    -0.93000
O348        O  0.22499199  0.79761776  0.16986740    -0.40800
O349        O  0.25150852  0.75109983  0.24887092    -0.77400
O350        O  0.21567668  0.74923080  0.21220779    -0.96100
O351        O  0.21322469  0.69812259  0.21571877    -0.89400
O352        O  0.25286180  0.69954313  0.25572510    -0.92200
C353        C  0.28851165  0.77550464  0.13940164     1.01500
C354        C  0.32738980  0.70838023  0.19884408     1.14500
C355        C  0.23357816  0.72167009  0.10122826     1.05200
O356        O  0.18481159  0.75347377  0.15031500    -0.94400
O357        O  0.17050310  0.72484880  0.20046491    -0.90100
O358        O  0.17903382  0.72917119  0.25067300    -0.83300
C359        C  0.16449877  0.72793592  0.22871350     1.11900
O360        O  0.27070821  0.64726506  0.18253233    -0.96400
Zr361      Zr  0.24710871  0.67373618  0.21366596     1.88900
O362        O  0.20274573  0.68848590  0.27308629    -0.73000
O363        O  0.18397861  0.69133673  0.15071533    -0.52300
O364        O  0.22445398  0.64410909  0.18754322    -0.97000
O365        O  0.27300642  0.65013629  0.24540668    -0.54200
O366        O  0.21993265  0.65790234  0.24885360    -0.73500
C367        C  0.20472048  0.66666216  0.26693464     0.98800
O368        O  0.19939043  0.75065015  0.29155552    -0.62300
O369        O  0.30888628  0.75874915  0.25948200    -0.57200
O370        O  0.23782703  0.72570747  0.30555813    -0.93800
O371        O  0.27687316  0.73100278  0.30285520    -0.92300
O372        O  0.27674611  0.79834881  0.22732415    -0.92600
O373        O  0.22923438  0.80311812  0.23050101    -0.91400
C374        C  0.25781561  0.72881946  0.31783673     1.17700
H375        H  0.29667517  0.75560215  0.19867013     0.33600
H376        H  0.20231873  0.75945803  0.21491436     0.44500
H377        H  0.25444557  0.69104653  0.27458040     0.38000
H378        H  0.23995854  0.68587287  0.15093078     0.34500
H379        H  0.22831068  0.79253063  0.14864567     0.26200
H380        H  0.19476594  0.68174093  0.13808529     0.32200
H381        H  0.21659218  0.65231849  0.17053465     0.38100
H382        H  0.28001521  0.81061076  0.21223585     0.32600
H383        H  0.29882686  0.76927308  0.27186171     0.31400
H384        H  0.32116406  0.70853294  0.28699233     0.33100
H385        H  0.26578090  0.65023636  0.26592201     0.32100
H386        H  0.22706559  0.79645849  0.25108104     0.36100
H387        H  0.19617996  0.74136950  0.31001669     0.28800
H388        H  0.29912468  0.70364462  0.11090520     0.33000
H389        H  0.28438499  0.65646392  0.17637787     0.35900
H390        H  0.32075327  0.75281486  0.27403800     0.28500
H391        H  0.21109787  0.76217301  0.29809181     0.41400
H392        H  0.17338978  0.74563613  0.13689829     0.31400
H393        H  0.20884805  0.79245079  0.17368468     0.39100
H394        H  0.28726703  0.65952624  0.24780105     0.30900
H395        H  0.18023504  0.68136997  0.16833035     0.31000
H396        H  0.28124233  0.68404567  0.11821889     0.31200
Zr397      Zr  0.57484112  0.97708705  0.21296464     2.17500
O398        O  0.54275884  0.99465393  0.18388164    -0.51100
O399        O  0.55057006  0.00054588  0.24716356    -0.74300
O400        O  0.54258304  0.95237517  0.19936875    -0.81100
O401        O  0.62642442  0.00916694  0.17499592    -0.82900
O402        O  0.54864140  0.91603555  0.21765950    -0.78500
O403        O  0.58718432  0.00383647  0.17367698    -0.90100
O404        O  0.55760447  0.98601311  0.29395462    -0.76100
O405        O  0.57265949  0.95467200  0.25811387    -0.85600
O406        O  0.60193825  0.99587240  0.24607733    -0.85300
O407        O  0.58593590  0.93813449  0.19741965    -0.72000
O408        O  0.61251040  0.97384540  0.19037562    -0.84200
Zr409      Zr  0.65018217  0.93095124  0.25251797     2.26400
Zr410      Zr  0.58569740  0.91636336  0.24443454     2.06300
Zr411      Zr  0.64029553  0.99180071  0.22292174     2.10000
Zr412      Zr  0.59946806  0.97313278  0.29129066     1.78800
O413        O  0.66195494  0.02334778  0.19982958    -0.93000
O414        O  0.58377131  0.95489949  0.33681638    -0.40800
O415        O  0.63829092  0.96959190  0.26860247    -0.77400
O416        O  0.61287572  0.93406759  0.27911711    -0.96100
O417        O  0.62240230  0.91464929  0.21874731    -0.89400
O418        O  0.65153322  0.95326555  0.20696771    -0.92200
C419        C  0.54437480  0.99709282  0.27484012     1.01500
C420        C  0.60625513  0.01126261  0.16216218     1.14500
C421        C  0.53682149  0.93108910  0.20251091     1.05200
O422        O  0.57033562  0.91111384  0.29565301    -0.94400
O423        O  0.61129334  0.88227315  0.24220520    -0.90100
O424        O  0.63812494  0.89481004  0.27476507    -0.83300
C425        C  0.63000451  0.87888149  0.25766582     1.11900
O426        O  0.60689215  0.94918576  0.12503543    -0.96400
Zr427      Zr  0.62335744  0.93637903  0.17357510     1.88900
O428        O  0.66756067  0.90061302  0.21823651    -0.73000
O429        O  0.56757803  0.87824102  0.24555624    -0.52300
O430        O  0.60309669  0.90504193  0.14730105    -0.97000
O431        O  0.65518225  0.94726570  0.13975550    -0.54200
O432        O  0.64718784  0.90222196  0.17377324    -0.73500
C433        C  0.66177386  0.89244637  0.19172003     0.98800
O434        O  0.67509072  0.92469512  0.29705173    -0.62300
O435        O  0.64017438  0.02252286  0.26148541    -0.57200
O436        O  0.68884743  0.94836615  0.25008218    -0.93800
O437        O  0.68278880  0.98420740  0.23014649    -0.92300
O438        O  0.60281282  0.01328997  0.30840988    -0.92600
O439        O  0.62403931  0.97526049  0.33665365    -0.91400
C440        C  0.69642316  0.96792674  0.24038555     1.17700
H441        H  0.59739224  0.01190868  0.24930039     0.33600
H442        H  0.61361414  0.92550409  0.29799588     0.44500
H443        H  0.66667187  0.95250542  0.19730571     0.38000
H444        H  0.57630454  0.93184069  0.18141858     0.34500
H445        H  0.57973639  0.96800993  0.35067275     0.26200
H446        H  0.55153908  0.88081396  0.25339793     0.32200
H447        H  0.59718242  0.89507742  0.16386755     0.38100
H448        H  0.58832116  0.01648086  0.32010646     0.32600
H449        H  0.65645059  0.02287344  0.26916032     0.31400
H450        H  0.67405020  0.02765907  0.21493369     0.33100
H451        H  0.65068514  0.96273051  0.13173764     0.32100
H452        H  0.63659991  0.96357489  0.33300673     0.36100
H453        H  0.67619064  0.94018869  0.30686692     0.28800
H454        H  0.54463335  0.01169131  0.18547431     0.33000
H455        H  0.61253399  0.93790136  0.10945788     0.35900
H456        H  0.63814464  0.03716252  0.25000996     0.28500
H457        H  0.66561274  0.91564328  0.31149526     0.41400
H458        H  0.55386058  0.91646383  0.29426051     0.31400
H459        H  0.56844148  0.94881173  0.33038787     0.39100
H460        H  0.65412794  0.93660769  0.12196891     0.30900
H461        H  0.56554026  0.87361703  0.22389924     0.31000
H462        H  0.54565848  0.99077173  0.16214071     0.31200
Zr463      Zr  0.91319674  0.93040138  0.20027068     2.17500
O464        O  0.93859818  0.90514964  0.23047682    -0.51100
O465        O  0.94447679  0.95617616  0.18636275    -0.74300
O466        O  0.93807922  0.90956102  0.16512621    -0.81100
O467        O  0.88217022  0.94689427  0.27254412    -0.82900
O468        O  0.91912246  0.89781758  0.12200893    -0.78500
O469        O  0.91856000  0.94287267  0.25292955    -0.90100
O470        O  0.92971009  0.97982177  0.14973445    -0.76100
O471        O  0.90367339  0.93830346  0.14867088    -0.85600
O472        O  0.89366810  0.96724646  0.20240702    -0.85300
O473        O  0.89084220  0.89836075  0.18158414    -0.72000
O474        O  0.87963073  0.92580814  0.23120776    -0.84200
Zr475      Zr  0.82538498  0.93749823  0.16605440     2.26400
Zr476      Zr  0.87843941  0.90831080  0.13062858     2.06300
Zr477      Zr  0.85818688  0.96202683  0.23148125     2.10000
Zr478      Zr  0.88548411  0.97501132  0.15031495     1.78800
O479        O  0.84875875  0.97589929  0.28279109    -0.93000
O480        O  0.89584234  0.97825367  0.09658606    -0.40800
O481        O  0.84939500  0.97023324  0.17955146    -0.77400
O482        O  0.85850508  0.94506035  0.13292969    -0.96100
O483        O  0.84631042  0.90167168  0.16374191    -0.89400
O484        O  0.83660337  0.92935142  0.21695312    -0.92200
C485        C  0.94714116  0.97176690  0.16589408     1.01500
C486        C  0.90444838  0.94665793  0.27539507     1.14500
C487        C  0.93743531  0.90000088  0.13857524     1.05200
O488        O  0.88357819  0.92277452  0.07897715    -0.94400
O489        O  0.84301681  0.89338979  0.10595042    -0.90100
O490        O  0.81180328  0.91277556  0.12581964    -0.83300
C491        C  0.82085276  0.89730532  0.10828193     1.11900
O492        O  0.88534382  0.86568311  0.23718256    -0.96400
Zr493      Zr  0.85819363  0.89350767  0.21438388     1.88900
O494        O  0.79680221  0.91327380  0.19472686    -0.73000
O495        O  0.88287389  0.86776840  0.11485636    -0.52300
O496        O  0.85092521  0.85464325  0.19463588    -0.97000
O497        O  0.85466828  0.89019031  0.26960213    -0.54200
O498        O  0.81790882  0.88661687  0.22177094    -0.73500
C499        C  0.79871535  0.89636216  0.21405952     0.98800
O500        O  0.80104830  0.96007430  0.13109360    -0.62300
O501        O  0.86770207  0.00316009  0.23097703    -0.57200
O502        O  0.79737480  0.96178535  0.19184564    -0.93800
O503        O  0.81465220  0.96831664  0.23764527    -0.92300
O504        O  0.88956378  0.01393776  0.17160880    -0.92600
O505        O  0.86260441  0.00399013  0.12266799    -0.91400
C506        C  0.79648080  0.96801820  0.21983627     1.17700
H507        H  0.90365875  0.97883787  0.21136591     0.33600
H508        H  0.85276990  0.94903744  0.11283742     0.44500
H509        H  0.82427919  0.92833296  0.23179070     0.38000
H510        H  0.90024640  0.88430295  0.18121649     0.34500
H511        H  0.90697646  0.99125654  0.09586541     0.26200
H512        H  0.89164517  0.86803516  0.09538853     0.32200
H513        H  0.86070990  0.85335866  0.17606276     0.38100
H514        H  0.90536860  0.01885149  0.16547431     0.32600
H515        H  0.85311703  0.01140301  0.23699128     0.31400
H516        H  0.83848108  0.98969285  0.28015661     0.33100
H517        H  0.84377961  0.87721798  0.27277523     0.32100
H518        H  0.84634690  0.99840473  0.12376265     0.36100
H519        H  0.80576520  0.97637261  0.13456759     0.28800
H520        H  0.95450592  0.91119009  0.22729809     0.33000
H521        H  0.89896802  0.87505006  0.24328873     0.35900
H522        H  0.87842237  0.00531431  0.24850189     0.28500
H523        H  0.80708265  0.95630330  0.11045451     0.41400
H524        H  0.88619359  0.90865345  0.06636100     0.31400
H525        H  0.90555162  0.96426506  0.09227902     0.39100
H526        H  0.84571428  0.90423876  0.27594847     0.30900
H527        H  0.89379089  0.86066755  0.12978086     0.31000
H528        H  0.93858846  0.88994552  0.21977797     0.31200
Zr529      Zr  0.56399475  0.52798927  0.44695400     2.17500
O530        O  0.53346013  0.51063599  0.47824038    -0.51100
O531        O  0.53679260  0.50501064  0.41613519    -0.74300
O532        O  0.53359431  0.55804740  0.45209093    -0.81100
O533        O  0.61344248  0.49224001  0.48429229    -0.82900
O534        O  0.54623831  0.59299504  0.43593411    -0.78500
O535        O  0.57875835  0.51028405  0.49427109    -0.90100
O536        O  0.54229203  0.51914439  0.36904447    -0.76100
O537        O  0.56266309  0.54748148  0.39916453    -0.85600
O538        O  0.58706459  0.50287718  0.41503810    -0.85300
O539        O  0.58079917  0.56569907  0.45565252    -0.72000
O540        O  0.60272606  0.52934125  0.45913604    -0.84200
Zr541      Zr  0.64257241  0.55997621  0.39868094     2.26400
Zr542      Zr  0.58111750  0.58430217  0.40633681     2.06300
Zr543      Zr  0.62673210  0.50344334  0.43422491     2.10000
Zr544      Zr  0.58559391  0.52276980  0.36734543     1.78800
O545        O  0.64180396  0.46719841  0.45577239    -0.93000
O546        O  0.57370083  0.54073465  0.31942575    -0.40800
O547        O  0.62591696  0.52249464  0.38626262    -0.77400
O548        O  0.60453745  0.55980528  0.37384524    -0.96100
O549        O  0.61865472  0.58368089  0.43085936    -0.89400
O550        O  0.64285052  0.54050270  0.44616364    -0.92200
C551        C  0.52909048  0.50993440  0.38939025     1.01500
C552        C  0.59703406  0.49856647  0.50253724     1.14500
C553        C  0.53467453  0.58023865  0.45427283     1.05200
O554        O  0.55535538  0.59058444  0.36278876    -0.94400
O555        O  0.60561048  0.61057338  0.37644853    -0.90100
O556        O  0.63985180  0.59217908  0.36484581    -0.83300
C557        C  0.62560198  0.60932972  0.36298406     1.11900
O558        O  0.57313983  0.57762820  0.02572709    -0.96400
Zr559      Zr  0.61829300  0.56299141  0.47782340     1.88900
O560        O  0.65878288  0.59216140  0.43070300    -0.73000
O561        O  0.57393342  0.62422503  0.42306244    -0.52300
O562        O  0.61154499  0.60300287  0.49497442    -0.97000
O563        O  0.61407988  0.56353103  0.03431273    -0.54200
O564        O  0.65688453  0.57847185  0.47839517    -0.73500
C565        C  0.66306820  0.59388674  0.45966950     0.98800
O566        O  0.67143638  0.55747226  0.35775663    -0.62300
O567        O  0.62400866  0.47353034  0.39468404    -0.57200
O568        O  0.67923142  0.53937459  0.40791638    -0.93800
O569        O  0.67011403  0.50648818  0.43348084    -0.92300
O570        O  0.58052835  0.48141402  0.35763458    -0.92600
O571        O  0.60361492  0.50915825  0.32005411    -0.91400
C572        C  0.68503173  0.52116781  0.42310673     1.17700
H573        H  0.58078551  0.48738404  0.41439284     0.33600
H574        H  0.60557587  0.56660402  0.35380121     0.44500
H575        H  0.65735843  0.54020771  0.45728919     0.38000
H576        H  0.57360411  0.57491090  0.47143772     0.34500
H577        H  0.56053215  0.53123482  0.31200571     0.26200
H578        H  0.58903077  0.62937016  0.43162431     0.32200
H579        H  0.59658087  0.62337590  0.97242526     0.38100
H580        H  0.56566202  0.48041143  0.34613838     0.32600
H581        H  0.64034460  0.46873566  0.39035657     0.31400
H582        H  0.65673624  0.46395610  0.44507737     0.33100
H583        H  0.62136163  0.57772772  0.04270414     0.32100
H584        H  0.62003956  0.50565626  0.32562887     0.36100
H585        H  0.66235864  0.55795166  0.33849147     0.28800
H586        H  0.53714014  0.49378321  0.47868622     0.33000
H587        H  0.55750916  0.57897004  0.01616147     0.35900
H588        H  0.61703346  0.45992646  0.40475808     0.28500
H589        H  0.67999478  0.57229995  0.35842365     0.41400
H590        H  0.55252274  0.60757946  0.36248066     0.31400
H591        H  0.56635664  0.55570720  0.32546746     0.39100
H592        H  0.62735098  0.55268626  0.03070066     0.30900
H593        H  0.57181604  0.63335522  0.40415602     0.31000
H594        H  0.52002331  0.52975873  0.99882102     0.31200
Zr595      Zr  0.90111011  0.54858989  0.45262936     2.17500
O596        O  0.92871315  0.55379238  0.41111469    -0.51100
O597        O  0.92921615  0.52557404  0.48073036    -0.74300
O598        O  0.92771336  0.57815312  0.47175216    -0.81100
O599        O  0.86369987  0.50207340  0.41818472    -0.82900
O600        O  0.91255896  0.61363682  0.46772933    -0.78500
O601        O  0.90071195  0.51583306  0.41783355    -0.90100
O602        O  0.91881743  0.52912616  0.01992267    -0.76100
O603        O  0.89705259  0.56685138  0.50116951    -0.85600
O604        O  0.87749634  0.52258100  0.48099123    -0.85300
O605        O  0.88313987  0.58557353  0.44249389    -0.72000
O606        O  0.86482174  0.54486324  0.42571525    -0.84200
Zr607      Zr  0.81693123  0.57583941  0.49162952     2.26400
Zr608      Zr  0.87690446  0.60304735  0.49284479     2.06300
Zr609      Zr  0.84000877  0.52118514  0.45621297     2.10000
Zr610      Zr  0.87585301  0.54230367  0.02479562     1.78800
O611        O  0.82299089  0.49043696  0.42517130    -0.93000
O612        O  0.89614322  0.56141510  0.06675190    -0.40800
O613        O  0.83609475  0.53934159  0.50474300    -0.77400
O614        O  0.85292510  0.57816792  0.01675930    -0.96100
O615        O  0.84213297  0.59976789  0.46306576    -0.89400
O616        O  0.82246788  0.55773583  0.44322521    -0.92200
C617        C  0.93285720  0.52229363  0.50927810     1.01500
C618        C  0.88472126  0.50214644  0.40831333     1.14500
C619        C  0.92850669  0.59880169  0.46131172     1.05200
O620        O  0.88693907  0.61139434  0.03435455    -0.94400
O621        O  0.84019055  0.63052633  0.98201359    -0.90100
O622        O  0.81490455  0.61309908  0.01279968    -0.83300
C623        C  0.82100630  0.63057433  0.99704224     1.11900
O624        O  0.86784309  0.57557426  0.36649344    -0.96400
Zr625      Zr  0.84771597  0.58160557  0.41490159     1.88900
O626        O  0.79544740  0.60528115  0.45985293    -0.73000
O627        O  0.88774006  0.64298097  0.50464267    -0.52300
O628        O  0.86277860  0.61744539  0.39372499    -0.97000
O629        O  0.82286996  0.56696281  0.37394390    -0.54200
O630        O  0.81626110  0.60933440  0.41613578    -0.73500
C631        C  0.79976552  0.61544674  0.43417249     0.98800
O632        O  0.79277333  0.57277965  0.03882813    -0.62300
O633        O  0.83957236  0.49042299  0.49407685    -0.57200
O634        O  0.78273718  0.55224929  0.47986407    -0.93800
O635        O  0.79713503  0.52074956  0.45419267    -0.92300
O636        O  0.87300030  0.50227732  0.04177662    -0.92600
O637        O  0.85854411  0.54045883  0.07551223    -0.91400
C638        C  0.78011014  0.53341336  0.46432786     1.17700
H639        H  0.88467123  0.50732738  0.48221557     0.33600
H640        H  0.85052352  0.58581897  0.03623340     0.44500
H641        H  0.80820108  0.55679897  0.43157976     0.38000
H642        H  0.89263294  0.59431213  0.42869196     0.34500
H643        H  0.90484471  0.54874953  0.07717969     0.26200
H644        H  0.90422402  0.64233215  0.51150292     0.32200
H645        H  0.85236939  0.62104502  0.37625020     0.38100
H646        H  0.88852819  0.49859009  0.05059656     0.32600
H647        H  0.82279476  0.48752108  0.49768835     0.31400
H648        H  0.81616593  0.47939873  0.43980285     0.33100
H649        H  0.80761763  0.57500319  0.37664787     0.32100
H650        H  0.84712642  0.55352357  0.07620122     0.36100
H651        H  0.80186279  0.58191806  0.05383395     0.28800
H652        H  0.93899782  0.53983823  0.41133875     0.33000
H653        H  0.88224868  0.56684215  0.37186591     0.35900
H654        H  0.84534577  0.47641113  0.48308902     0.28500
H655        H  0.77859311  0.58232002  0.03490043     0.41400
H656        H  0.90417741  0.61090536  0.03266035     0.31400
H657        H  0.90842110  0.57057565  0.05676367     0.39100
H658        H  0.81988903  0.55056283  0.37915206     0.30900
H659        H  0.88813302  0.65100044  0.48471976     0.31000
H660        H  0.91949549  0.55248468  0.39206043     0.31200
Zr661      Zr  0.73774704  0.77330689  0.25229971     2.17500
O662        O  0.77150001  0.77809703  0.21907690    -0.51100
O663        O  0.71170323  0.80209674  0.23020570    -0.74300
O664        O  0.73130778  0.75693951  0.20304501    -0.81100
O665        O  0.75040666  0.82295800  0.30469583    -0.82900
O666        O  0.71422990  0.72175113  0.20697317    -0.78500
O667        O  0.75829343  0.80871336  0.25736895    -0.90100
O668        O  0.68102213  0.78128109  0.24120379    -0.76100
O669        O  0.70053034  0.75511487  0.25429788    -0.85600
O670        O  0.71648748  0.79272269  0.29239067    -0.85300
O671        O  0.74651011  0.73304311  0.26027737    -0.72000
O672        O  0.76174418  0.76854529  0.29677496    -0.84200
Zr673      Zr  0.71161465  0.72926923  0.34868919     2.26400
Zr674      Zr  0.70901029  0.71518127  0.26286826     2.06300
Zr675      Zr  0.74044826  0.78846584  0.33659775     2.10000
Zr676      Zr  0.68008481  0.77383234  0.29522486     1.78800
O677        O  0.77960426  0.79848644  0.35340545    -0.93000
O678        O  0.63928132  0.77864852  0.28028999    -0.40800
O679        O  0.70311691  0.76973242  0.34063568    -0.77400
O680        O  0.68762525  0.73386821  0.30387058    -0.96100
O681        O  0.73172691  0.70944708  0.30849811    -0.89400
O682        O  0.74842046  0.74791548  0.34611188    -0.92200
C683        C  0.68964099  0.80034375  0.23265289     1.01500
C684        C  0.75623616  0.82551885  0.27629620     1.14500
C685        C  0.72275590  0.73860883  0.19126223     1.05200
O686        O  0.67491891  0.70415482  0.23311345    -0.94400
O687        O  0.68572677  0.68687440  0.29078451    -0.90100
O688        O  0.68714381  0.69589416  0.34155132    -0.83300
C689        C  0.67984554  0.68376828  0.31887052     1.11900
O690        O  0.80128583  0.73140030  0.27160076    -0.96400
Zr691      Zr  0.76849251  0.72783728  0.30652321     1.88900
O692        O  0.73547549  0.69929853  0.37312180    -0.73000
O693        O  0.72927525  0.67932065  0.24857292    -0.52300
O694        O  0.78042434  0.69052536  0.28470765    -0.97000
O695        O  0.80387667  0.73917855  0.33342934    -0.54200
O696        O  0.77066495  0.70091395  0.34964981    -0.73500
C697        C  0.75686570  0.69273257  0.37004842     0.98800
O698        O  0.67960051  0.72804679  0.38547893    -0.62300
O699        O  0.72147556  0.82122687  0.36238067    -0.57200
O700        O  0.72033501  0.74804884  0.39654415    -0.93800
O701        O  0.73687263  0.78353884  0.39253707    -0.92300
O702        O  0.67302881  0.81382945  0.31167902    -0.92600
O703        O  0.64788673  0.76016996  0.32635372    -0.91400
C704        C  0.72869680  0.76662888  0.40828166     1.17700
H705        H  0.71344600  0.80884389  0.28806363     0.33600
H706        H  0.67251290  0.72692851  0.30625446     0.44500
H707        H  0.75722295  0.74606033  0.36478018     0.38000
H708        H  0.75529452  0.72680202  0.24321874     0.34500
H709        H  0.63686718  0.79556388  0.27763576     0.26200
H710        H  0.71749570  0.67036758  0.23703274     0.32200
H711        H  0.76854207  0.67945639  0.29179537     0.38100
H712        H  0.65997827  0.81289262  0.32640053     0.32600
H713        H  0.73259949  0.83414439  0.36059222     0.31400
H714        H  0.77717540  0.80733944  0.37262665     0.33100
H715        H  0.79987171  0.73845403  0.35538227     0.32100
H716        H  0.64992713  0.76813140  0.34627596     0.36100
H717        H  0.67833934  0.74377829  0.39465413     0.28800
H718        H  0.76544941  0.78585602  0.20049977     0.33000
H719        H  0.80076506  0.74783314  0.26508082     0.35900
H720        H  0.70830570  0.82564692  0.34884776     0.28500
H721        H  0.66536749  0.72713140  0.37277649     0.41400
H722        H  0.66763466  0.71909708  0.22691594     0.31400
H723        H  0.63818964  0.77197477  0.25945911     0.39100
H724        H  0.80535537  0.75597282  0.32925931     0.30900
H725        H  0.74075416  0.68400294  0.23297787     0.31000
H726        H  0.77602155  0.76222426  0.21230005     0.31200
Zr727      Zr  0.70695661  0.73193940  0.00224077     2.17500
O728        O  0.67856197  0.72567608  0.46436602    -0.51100
O729        O  0.73227158  0.70226055  0.97971712    -0.74300
O730        O  0.71937684  0.74835059  0.45328905    -0.81100
O731        O  0.69825168  0.68302067  0.05450727    -0.82900
O732        O  0.73557926  0.78381195  0.45853667    -0.78500
O733        O  0.68508150  0.69775954  0.00989092    -0.90100
O734        O  0.76294860  0.72425468  0.98638302    -0.76100
O735        O  0.74365684  0.75115050  0.00115557    -0.85600
O736        O  0.73092328  0.71335916  0.04009958    -0.85300
O737        O  0.69720663  0.77194100  0.01166625    -0.72000
O738        O  0.68521623  0.73672486  0.04865974    -0.84200
Zr739      Zr  0.73734124  0.77663504  0.09710424     2.26400
Zr740      Zr  0.73424717  0.79062773  0.01110754     2.06300
Zr741      Zr  0.70902158  0.71733465  0.08605981     2.10000
Zr742      Zr  0.76686099  0.73340017  0.03987956     1.78800
O743        O  0.67098857  0.70586634  0.10515937    -0.93000
O744        O  0.80640458  0.73285008  0.01938028    -0.40800
O745        O  0.74625021  0.73654838  0.08731446    -0.77400
O746        O  0.75870159  0.77322394  0.05001494    -0.96100
O747        O  0.71457654  0.79592635  0.05912415    -0.89400
O748        O  0.70078441  0.75756335  0.09732879    -0.92200
C749        C  0.75437145  0.70474719  0.97927988     1.01500
C750        C  0.68982050  0.68069778  0.02725402     1.14500
C751        C  0.72809658  0.76677823  0.44216866     1.05200
O752        O  0.76566385  0.80849233  0.98262151    -0.94400
O753        O  0.75555182  0.82128834  0.03659109    -0.90100
O754        O  0.75557689  0.81373748  0.08772785    -0.83300
C755        C  0.76071605  0.82611842  0.06441627     1.11900
O756        O  0.64181127  0.77267987  0.03185294    -0.96400
Zr757      Zr  0.67807721  0.77722879  0.06023440     1.88900
O758        O  0.71421526  0.80420828  0.12604746    -0.73000
O759        O  0.70744945  0.82178946  0.99647590    -0.52300
O760        O  0.66453322  0.81377812  0.03828431    -0.97000
O761        O  0.64555664  0.76620376  0.09269569    -0.54200
O762        O  0.67867949  0.80490007  0.10324059    -0.73500
C763        C  0.69323537  0.81190335  0.12372051     0.98800
O764        O  0.77190880  0.77916282  0.12937675    -0.62300
O765        O  0.73001521  0.68477702  0.10898352    -0.57200
O766        O  0.73203101  0.75704899  0.14561605    -0.93800
O767        O  0.71353264  0.72240396  0.14157780    -0.92300
O768        O  0.77655556  0.69379414  0.05504632    -0.92600
O769        O  0.80083806  0.74631467  0.06852453    -0.91400
C770        C  0.72285983  0.73882070  0.15732673     1.17700
H771        H  0.73418157  0.69723883  0.03566435     0.33600
H772        H  0.77339889  0.78118386  0.05143511     0.44500
H773        H  0.69305420  0.75921308  0.11680602     0.38000
H774        H  0.68737521  0.77784271  0.99545701     0.34500
H775        H  0.80999885  0.71629288  0.01511385     0.26200
H776        H  0.71113371  0.83474445  0.01058437     0.32200
H777        H  0.67422664  0.82583090  0.04811595     0.38100
H778        H  0.78140031  0.69520156  0.07668588     0.32600
H779        H  0.71777730  0.67333637  0.11353839     0.31400
H780        H  0.66131794  0.70360342  0.08663102     0.33100
H781        H  0.65122244  0.76813692  0.11393082     0.32100
H782        H  0.79897220  0.73936260  0.08898135     0.36100
H783        H  0.78500863  0.78141594  0.11502801     0.28800
H784        H  0.68571031  0.71715844  0.44693056     0.33000
H785        H  0.64357253  0.75747566  0.02135987     0.35900
H786        H  0.73902584  0.67768446  0.09194756     0.28500
H787        H  0.77021130  0.79419087  0.14033027     0.41400
H788        H  0.77933995  0.79810780  0.98598440     0.31400
H789        H  0.80513845  0.74018643  0.99904723     0.39100
H790        H  0.64434372  0.74919981  0.08986275     0.30900
H791        H  0.71318474  0.82694245  0.97634804     0.31000
H792        H  0.67491208  0.74137565  0.45644822     0.31200
Zr793      Zr  0.57054526  0.34207803  0.09637323     2.17500
O794        O  0.56708620  0.31031833  0.13262765    -0.51100
O795        O  0.60722727  0.32141816  0.08013227    -0.74300
O796        O  0.55085391  0.30817767  0.07472047    -0.81100
O797        O  0.60501469  0.37824896  0.15471702    -0.82900
O798        O  0.53787019  0.31851079  0.02781606    -0.78500
O799        O  0.57934909  0.35010808  0.14946354    -0.90100
O800        O  0.62763756  0.34544331  0.04943109    -0.76100
O801        O  0.57755080  0.34944145  0.04403489    -0.85600
O802        O  0.59954333  0.37137038  0.09365521    -0.85300
O803        O  0.53266005  0.35607528  0.07887439    -0.72000
O804        O  0.55383975  0.37594890  0.12233999    -0.84200
Zr805      Zr  0.55485404  0.42441061  0.04768013     2.26400
Zr806      Zr  0.54021257  0.36137524  0.02564192     2.06300
Zr807      Zr  0.58419427  0.40447261  0.12135081     2.10000
Zr808      Zr  0.60559715  0.37982987  0.04158270     1.78800
O809        O  0.57056852  0.41159835  0.17329932    -0.93000
O810        O  0.61387698  0.36474006  0.99056641    -0.40800
O811        O  0.59166817  0.41315621  0.06857575    -0.77400
O812        O  0.56917171  0.39104998  0.02059486    -0.96100
O813        O  0.52481335  0.39634234  0.04929352    -0.89400
O814        O  0.54826305  0.41888086  0.10062716    -0.92200
C815        C  0.62495428  0.32623269  0.06304777     1.01500
C816        C  0.59941297  0.35704449  0.15774662     1.14500
C817        C  0.54192754  0.30315886  0.04857699     1.05200
O818        O  0.55405403  0.34689279  0.97642610    -0.94400
O819        O  0.52613960  0.38677478  0.98598609    -0.90100
O820        O  0.53584879  0.42370484  0.99876414    -0.83300
C821        C  0.52623576  0.40871294  0.98120885     1.11900
O822        O  0.49110269  0.36836969  0.13099068    -0.96400
Zr823      Zr  0.51767161  0.39242372  0.10198345     1.88900
O824        O  0.52258230  0.45036207  0.05787732    -0.73000
O825        O  0.50013377  0.34957770  0.01621101    -0.52300
O826        O  0.48003565  0.38795485  0.07674743    -0.97000
O827        O  0.51181252  0.40249070  0.15558556    -0.54200
O828        O  0.50324834  0.43468671  0.09769916    -0.73500
C829        C  0.50737342  0.45186131  0.07914449     0.98800
O830        O  0.57111880  0.45160797  0.01130766    -0.62300
O831        O  0.62340696  0.41970339  0.12763011    -0.57200
O832        O  0.56982703  0.45646421  0.07719889    -0.93800
O833        O  0.58435509  0.44649042  0.12382886    -0.92300
O834        O  0.64298322  0.39270160  0.06165336    -0.92600
O835        O  0.62290645  0.40796035  0.00737216    -0.91400
C836        C  0.57827445  0.46139587  0.10365396     1.17700
H837        H  0.61426583  0.36599389  0.10180391     0.33600
H838        H  0.57153363  0.39464676  0.99932122     0.44500
H839        H  0.54367557  0.43277953  0.11155968     0.38000
H840        H  0.52115493  0.34412309  0.08137893     0.34500
H841        H  0.63033444  0.35926113  0.99134716     0.26200
H842        H  0.49092218  0.36424909  0.01619327     0.32200
H843        H  0.47892671  0.40099972  0.06216480     0.38100
H844        H  0.65463736  0.38754665  0.04628161     0.32600
H845        H  0.62547711  0.42145393  0.14996600     0.31400
H846        H  0.56671847  0.42839844  0.17419599     0.33100
H847        H  0.51693028  0.41879480  0.15737938     0.32100
H848        H  0.61129235  0.42081551  0.00631835     0.36100
H849        H  0.55997784  0.46493330  0.01135554     0.28800
H850        H  0.57426929  0.29652959  0.12257650     0.33000
H851        H  0.49806340  0.35255666  0.12996346     0.35900
H852        H  0.63401434  0.40668114  0.12185211     0.28500
H853        H  0.58537197  0.45765635  0.02116645     0.41400
H854        H  0.54239763  0.33528077  0.97000940     0.31400
H855        H  0.60465655  0.35036053  0.98896774     0.39100
H856        H  0.52389680  0.39343307  0.16671607     0.30900
H857        H  0.50003576  0.34431461  0.99462395     0.31000
H858        H  0.55019382  0.30696589  0.13380936     0.31200
Zr859      Zr  0.56056630  0.15544772  0.99437752     2.17500
O860        O  0.54268937  0.18353497  0.47121441    -0.51100
O861        O  0.59733157  0.17352890  0.01261986    -0.74300
O862        O  0.54432116  0.19406680  0.00568987    -0.81100
O863        O  0.60369101  0.11285510  0.96559442    -0.82900
O864        O  0.52114908  0.18959485  0.04691314    -0.78500
O865        O  0.57679482  0.15181173  0.46277126    -0.90100
O866        O  0.60284121  0.16151446  0.06149819    -0.76100
O867        O  0.55245069  0.15773992  0.04744796    -0.85600
O868        O  0.58628323  0.12771142  0.01765793    -0.85300
O869        O  0.51979713  0.14466509  0.99764139    -0.72000
O870        O  0.55027507  0.11809802  0.97236441    -0.84200
Zr871      Zr  0.52899297  0.08270857  0.05516940     2.26400
Zr872      Zr  0.51228217  0.14763693  0.05140027     2.06300
Zr873      Zr  0.57671620  0.09074407  0.99550588     2.10000
Zr874      Zr  0.57761080  0.12981286  0.07058729     1.78800
O875        O  0.57438809  0.07299692  0.46681468    -0.93000
O876        O  0.57049719  0.15362551  0.11592489    -0.40800
O877        O  0.56875273  0.09330816  0.04888476    -0.77400
O878        O  0.53785401  0.12035279  0.07687493    -0.96100
O879        O  0.50215840  0.10946157  0.03246927    -0.89400
O880        O  0.53741493  0.07875283  0.00214753    -0.92200
C881        C  0.60850748  0.17340912  0.03830029     1.01500
C882        C  0.59732310  0.14342144  0.45909778     1.14500
C883        C  0.53211289  0.20252452  0.02780574     1.05200
O884        O  0.49453526  0.17375122  0.08898934    -0.94400
O885        O  0.49520488  0.13122382  0.09738532    -0.90100
O886        O  0.50539190  0.09297247  0.09897346    -0.83300
C887        C  0.49556462  0.11121769  0.11025405     1.11900
O888        O  0.49583352  0.12369956  0.46815284    -0.96400
Zr889      Zr  0.51682142  0.10365622  0.50878791     1.88900
O890        O  0.50449754  0.05344348  0.03124580    -0.73000
O891        O  0.47475397  0.15508813  0.02688103    -0.52300
O892        O  0.47566774  0.10549517  0.52268693    -0.97000
O893        O  0.51688711  0.08483475  0.45881129    -0.54200
O894        O  0.50662059  0.06208584  0.51914996    -0.73500
C895        C  0.49568050  0.04932193  0.00484416     0.98800
O896        O  0.52007692  0.05399314  0.09413650    -0.62300
O897        O  0.61290121  0.06926053  0.98491699    -0.57200
O898        O  0.56108217  0.05567346  0.06352029    -0.93800
O899        O  0.59042093  0.06011775  0.02933625    -0.92300
O900        O  0.61800589  0.11680362  0.07623392    -0.92600
O901        O  0.58553904  0.10653703  0.11576604    -0.91400
C902        C  0.58126197  0.05045288  0.05261319     1.17700
H903        H  0.60263329  0.13088373  0.01483624     0.33600
H904        H  0.53648634  0.12094151  0.09879311     0.44500
H905        H  0.53679636  0.06297437  0.99474301     0.38000
H906        H  0.51041998  0.15601221  0.98683927     0.34500
H907        H  0.58544017  0.16158968  0.11979974     0.26200
H908        H  0.46319329  0.15381616  0.04355798     0.32200
H909        H  0.47374907  0.09339630  0.53842782     0.38100
H910        H  0.62165847  0.10852904  0.05689393     0.32600
H911        H  0.61500307  0.06965517  0.96248923     0.31400
H912        H  0.58039826  0.05748850  0.47284227     0.33100
H913        H  0.50201866  0.07626282  0.45800748     0.32100
H914        H  0.57164757  0.09663369  0.11797073     0.36100
H915        H  0.52179019  0.03862239  0.08404301     0.28800
H916        H  0.55018402  0.19888246  0.47290359     0.33000
H917        H  0.50685367  0.13557953  0.46092338     0.35900
H918        H  0.62557773  0.07899829  0.99326775     0.28500
H919        H  0.53313223  0.05457620  0.10896705     0.41400
H920        H  0.50697289  0.17647989  0.10430233     0.31400
H921        H  0.55966624  0.16608743  0.10905609     0.39100
H922        H  0.52904013  0.07251918  0.46025025     0.30900
H923        H  0.47490347  0.17186336  0.02203403     0.31000
H924        H  0.52623264  0.18634636  0.47730661     0.31200
Zr925      Zr  0.92951239  0.14437744  0.30888072     2.17500
O926        O  0.93163074  0.16601995  0.35684335    -0.51100
O927        O  0.90567138  0.17138126  0.27616347    -0.74300
O928        O  0.95467919  0.17747288  0.30389275    -0.81100
O929        O  0.87806615  0.11138092  0.34004386    -0.82900
O930        O  0.98208800  0.16777907  0.26857179    -0.78500
O931        O  0.89463224  0.14704917  0.33869709    -0.90100
O932        O  0.89481708  0.15137487  0.23375207    -0.76100
O933        O  0.93861826  0.14009063  0.25656942    -0.85600
O934        O  0.90134010  0.11843988  0.28856357    -0.85300
O935        O  0.96884591  0.12853944  0.31037830    -0.72000
O936        O  0.93530646  0.10859655  0.33715588    -0.84200
Zr937      Zr  0.95390167  0.06378846  0.26070880     2.26400
Zr938      Zr  0.97787877  0.12561094  0.25756658     2.06300
Zr939      Zr  0.90595345  0.08350118  0.31702014     2.10000
Zr940      Zr  0.91049843  0.11324729  0.23686562     1.78800
O941        O  0.90072302  0.07361600  0.37051975    -0.93000
O942        O  0.91961640  0.12662785  0.18560346    -0.40800
O943        O  0.91405506  0.07741567  0.26368306    -0.77400
O944        O  0.94903259  0.10039349  0.23567095    -0.96100
O945        O  0.98363106  0.08820750  0.28118617    -0.89400
O946        O  0.94483284  0.06764837  0.31351952    -0.92200
C947        C  0.89519623  0.16980431  0.24990466     1.01500
C948        C  0.87781205  0.13351344  0.34495673     1.14500
C949        C  0.97217616  0.18243069  0.28709625     1.05200
O950        O  0.99172037  0.14928635  0.21572518    -0.94400
O951        O  0.99059055  0.10414493  0.21292564    -0.90100
O952        O  0.97599295  0.06753162  0.21316314    -0.83300
C953        C  0.98670140  0.08439226  0.20025017     1.11900
O954        O  0.98923389  0.11430108  0.37577809    -0.96400
Zr955      Zr  0.97418341  0.09069856  0.33400175     1.88900
O956        O  0.98182816  0.03714150  0.28412897    -0.73000
O957        O  0.01818977  0.12322930  0.27512261    -0.52300
O958        O  0.01643569  0.09312582  0.32939605    -0.97000
O959        O  0.96620171  0.07646279  0.38516050    -0.54200
O960        O  0.98711360  0.04841002  0.33326960    -0.73500
C961        C  0.98895746  0.03307589  0.31146419     0.98800
O962        O  0.95006367  0.03610753  0.21871152    -0.62300
O963        O  0.86871340  0.06785028  0.30032500    -0.57200
O964        O  0.92911212  0.03187950  0.27537344    -0.93800
O965        O  0.90767323  0.04135012  0.31747247    -0.92300
O966        O  0.86823427  0.10951732  0.23388961    -0.92600
O967        O  0.90201785  0.08419698  0.19780483    -0.91400
C968        C  0.91781934  0.02658993  0.29962887     1.17700
H969        H  0.88565846  0.12477711  0.28877026     0.33600
H970        H  0.94969537  0.09960980  0.21378819     0.44500
H971        H  0.94616586  0.05329849  0.32453902     0.38000
H972        H  0.97919127  0.13941673  0.32016950     0.34500
H973        H  0.90458840  0.13253429  0.17733099     0.26200
H974        H  0.02741834  0.12063233  0.25629070     0.32200
H975        H  0.02262871  0.08162563  0.34415140     0.38100
H976        H  0.86420197  0.11407467  0.21273568     0.32600
H977        H  0.85752114  0.07231086  0.31660474     0.31400
H978        H  0.91277854  0.06153308  0.37458580     0.33100
H979        H  0.98133154  0.07000040  0.39240186     0.32100
H980        H  0.91705969  0.07594610  0.19416341     0.36100
H981        H  0.95478963  0.02094062  0.22739553     0.28800
H982        H  0.92866515  0.18248052  0.35153512     0.33000
H983        H  0.97761725  0.12707634  0.37817582     0.35900
H984        H  0.86410789  0.07751795  0.28264327     0.28500
H985        H  0.93305693  0.03486744  0.21503752     0.41400
H986        H  0.97731547  0.15411605  0.20479676     0.31400
H987        H  0.92913027  0.14067294  0.18883316     0.39100
H988        H  0.95637225  0.06266412  0.38188322     0.30900
H989        H  0.02194690  0.13927753  0.28151578     0.31000
H990        H  0.94830523  0.16525418  0.36287717     0.31200
Zr991      Zr  0.93244556  0.32055873  0.28501526     2.17500
O992        O  0.92816199  0.29667322  0.23912014    -0.51100
O993        O  0.90920718  0.29694800  0.32204179    -0.74300
O994        O  0.95684471  0.28621837  0.28579069    -0.81100
O995        O  0.87763325  0.35397875  0.26984753    -0.82900
O996        O  0.99106725  0.29630936  0.30808727    -0.78500
O997        O  0.89520964  0.31901729  0.26161229    -0.90100
O998        O  0.90957804  0.31538901  0.36781551    -0.76100
O999        O  0.95237573  0.32404771  0.33208692    -0.85600
O1000       O  0.90900688  0.34648747  0.31451100    -0.85300
O1001       O  0.96960296  0.33656135  0.27026402    -0.72000
O1002       O  0.93129498  0.35619223  0.25565426    -0.84200
Zr1003     Zr  0.96546463  0.40123026  0.32205245     2.26400
Zr1004     Zr  0.98965482  0.33895610  0.31792687     2.06300
Zr1005     Zr  0.90745361  0.38154886  0.28597485     2.10000
Zr1006     Zr  0.92906813  0.35111483  0.36100870     1.78800
O1007       O  0.89929126  0.39841748  0.23623514    -0.93000
O1008       O  0.94757164  0.33346332  0.40549951    -0.40800
O1009       O  0.92738633  0.38671110  0.33383298    -0.77400
O1010       O  0.96609204  0.36493519  0.34891071    -0.96100
O1011       O  0.98957946  0.37604165  0.29198552    -0.89400
O1012       O  0.94434274  0.39886785  0.27526690    -0.92200
C1013       C  0.90341320  0.29862626  0.35068167     1.01500
C1014       C  0.87737252  0.33244715  0.26196095     1.14500
C1015       C  0.97724695  0.28129743  0.29583956     1.05200
O1016       O  0.01215598  0.31631138  0.35468110    -0.94400
O1017       O  0.01093593  0.35957339  0.35747152    -0.90100
O1018       O  0.99807723  0.39719749  0.35734731    -0.83300
C1019       C  0.00938711  0.38005037  0.36918228     1.11900
O1020       O  0.97679235  0.35044208  0.20021129    -0.96400
Zr1021     Zr  0.96857043  0.37440774  0.24507149     1.88900
O1022       O  0.98091994  0.43081564  0.28829631    -0.73000
O1023       O  0.02470735  0.33928350  0.28657426    -0.52300
O1024       O  0.01002536  0.37258249  0.23276309    -0.97000
O1025       O  0.94815217  0.38550841  0.19843278    -0.54200
O1026       O  0.97863316  0.41691615  0.23992369    -0.73500
C1027       C  0.98237743  0.43363668  0.25936968     0.98800
O1028       O  0.97709778  0.43281826  0.35620836    -0.62300
O1029       O  0.86851696  0.39419258  0.30205785    -0.57200
O1030       O  0.93410802  0.42793532  0.33342573    -0.93800
O1031       O  0.90093864  0.41980735  0.30712464    -0.92300
O1032       O  0.88960635  0.36304262  0.37543016    -0.92600
O1033       O  0.92986626  0.37535842  0.40675273    -0.91400
C1034       C  0.91318084  0.43242169  0.32498249     1.17700
H1035       H  0.89365274  0.34057273  0.31871252     0.33600
H1036       H  0.97102035  0.36629641  0.36981455     0.44500
H1037       H  0.94123972  0.41389043  0.26636903     0.38000
H1038       H  0.97770360  0.32553892  0.25720356     0.34500
H1039       H  0.93450026  0.32812497  0.41834277     0.26200
H1040       H  0.03758461  0.33571744  0.30098784     0.32200
H1041       H  0.01579329  0.38848806  0.23644302     0.38100
H1042       H  0.88740627  0.37862010  0.36631634     0.32600
H1043       H  0.85861735  0.39347201  0.28352467     0.31400
H1044       H  0.89326998  0.38536865  0.22381847     0.33100
H1045       H  0.96035496  0.39216289  0.18523399     0.32100
H1046       H  0.93604697  0.39037122  0.39971888     0.36100
H1047       H  0.97503043  0.44729366  0.34436912     0.28800
H1048       H  0.92455131  0.28083991  0.24627213     0.33000
H1049       H  0.96604593  0.33718493  0.20194791     0.35900
H1050       H  0.86279802  0.38164157  0.31534966     0.28500
H1051       H  0.96505246  0.43388732  0.37238500     0.41400
H1052       H  0.00054566  0.31156932  0.37010868     0.31400
H1053       H  0.95497376  0.31899227  0.39761880     0.39100
H1054       H  0.93836354  0.39905527  0.20446437     0.30900
H1055       H  0.02356120  0.32519634  0.27358951     0.31000
H1056       H  0.94398954  0.29539024  0.23012624     0.31200
Zr1057     Zr  0.71792351  0.22953677  0.47528764     2.17500
O1058       O  0.71089455  0.19422389  0.01197546    -0.51100
O1059       O  0.69187744  0.25113656  0.99504770    -0.74300
O1060       O  0.73577745  0.23438857  0.02397453    -0.81100
O1061       O  0.67171215  0.21778466  0.41343370    -0.82900
O1062       O  0.77435155  0.24339481  0.02052300    -0.78500
O1063       O  0.68442837  0.20599364  0.46018223    -0.90100
O1064       O  0.70764674  0.29380963  0.48150326    -0.76100
O1065       O  0.74647941  0.25925817  0.47449917    -0.85600
O1066       O  0.70467254  0.25543632  0.43645488    -0.85300
O1067       O  0.75511872  0.21080642  0.46749007    -0.72000
O1068       O  0.71671815  0.20746097  0.42923245    -0.84200
Zr1069     Zr  0.76910754  0.24232274  0.37928111     2.26400
Zr1070     Zr  0.78369965  0.24117758  0.46295077     2.06300
Zr1071     Zr  0.70537520  0.23376996  0.38940871     2.10000
Zr1072     Zr  0.73291406  0.28514921  0.43654550     1.78800
O1073       O  0.68460543  0.20583251  0.35783515    -0.93000
O1074       O  0.75566221  0.31365727  0.46468442    -0.40800
O1075       O  0.73357232  0.26370808  0.38888036    -0.77400
O1076       O  0.77019785  0.26714440  0.42384059    -0.96100
O1077       O  0.78157973  0.21720893  0.41875798    -0.89400
O1078       O  0.74100984  0.21259199  0.38066220    -0.92200
C1079       C  0.69440185  0.28159547  0.49892040     1.01500
C1080       C  0.66987205  0.20581640  0.43769928     1.14500
C1081       C  0.75530782  0.24042342  0.03570727     1.05200
O1082       O  0.80621759  0.27152201  0.48770384    -0.94400
O1083       O  0.81970440  0.24998907  0.43270832    -0.90100
O1084       O  0.80892642  0.25307128  0.38303696    -0.83300
C1085       C  0.82428587  0.25357357  0.40407727     1.11900
O1086       O  0.73721920  0.16007033  0.45776816    -0.96400
Zr1087     Zr  0.75281423  0.18796646  0.42181317     1.88900
O1088       O  0.79469179  0.20924161  0.36605989    -0.73000
O1089       O  0.81016405  0.20992638  0.47844116    -0.52300
O1090       O  0.78448903  0.16547851  0.44484642    -0.97000
O1091       O  0.73127916  0.15771002  0.39523019    -0.54200
O1092       O  0.77848920  0.17570246  0.38183229    -0.73500
C1093       C  0.79464573  0.18700518  0.36895759     0.98800
O1094       O  0.78074206  0.26947754  0.33962771    -0.62300
O1095       O  0.67705009  0.26449955  0.37795861    -0.57200
O1096       O  0.75086063  0.23926805  0.32991266    -0.93800
O1097       O  0.71143828  0.23905409  0.33450907    -0.92300
O1098       O  0.69951005  0.30679084  0.41637765    -0.92600
O1099       O  0.74376717  0.31755518  0.40429789    -0.91400
C1100       C  0.73019869  0.23939073  0.31854732     1.17700
H1101       H  0.68911759  0.26144913  0.44031272     0.33600
H1102       H  0.78150930  0.27920495  0.42081662     0.44500
H1103       H  0.74043830  0.20377660  0.36183994     0.38000
H1104       H  0.76336388  0.20095301  0.98920222     0.34500
H1105       H  0.75617582  0.30778831  0.48587104     0.26200
H1106       H  0.80724112  0.20994671  0.00445253     0.32200
H1107       H  0.78312308  0.14974327  0.43580982     0.38100
H1108       H  0.69591407  0.31877018  0.43207265     0.32600
H1109       H  0.67508067  0.26395263  0.35549910     0.31400
H1110       H  0.67132269  0.21474851  0.34904489     0.33100
H1111       H  0.73656324  0.15836459  0.37374030     0.32100
H1112       H  0.74943454  0.31019369  0.38513638     0.36100
H1113       H  0.78708534  0.28315033  0.35051205     0.28800
H1114       H  0.70344667  0.20278424  0.02911253     0.33000
H1115       H  0.72187547  0.16668672  0.46393028     0.35900
H1116       H  0.66203856  0.25882913  0.38602900     0.28500
H1117       H  0.79432501  0.26219445  0.32913030     0.41400
H1118       H  0.81369142  0.27685141  0.99228307     0.31400
H1119       H  0.77185595  0.31160386  0.45711461     0.39100
H1120       H  0.71497977  0.16364188  0.39464215     0.30900
H1121       H  0.82342747  0.21266683  0.97595544     0.31000
H1122       H  0.72618961  0.18890225  0.02009591     0.31200
Zr1123     Zr  0.71544453  0.25788698  0.12880523     2.17500
O1124       O  0.70685274  0.28929227  0.09308249    -0.51100
O1125       O  0.68783555  0.23374307  0.10317869    -0.74300
O1126       O  0.73465876  0.24992014  0.08014869    -0.81100
O1127       O  0.67185955  0.27539725  0.19278673    -0.82900
O1128       O  0.77308899  0.23980968  0.08502239    -0.78500
O1129       O  0.68134701  0.28131651  0.14288678    -0.90100
O1130       O  0.69584795  0.19715140  0.11921740    -0.76100
O1131       O  0.74039032  0.22457938  0.12762767    -0.85600
O1132       O  0.69919573  0.23258687  0.16602335    -0.85300
O1133       O  0.75422337  0.27115863  0.13860775    -0.72000
O1134       O  0.71594728  0.27778036  0.17666711    -0.84200
Zr1135     Zr  0.76449501  0.23272752  0.22233718     2.26400
Zr1136     Zr  0.77931653  0.23694936  0.14001757     2.06300
Zr1137     Zr  0.70226633  0.25151454  0.21503799     2.10000
Zr1138     Zr  0.72344994  0.19901969  0.16296841     1.78800
O1139       O  0.68551589  0.27993346  0.25048864    -0.93000
O1140       O  0.73799765  0.16874489  0.12853225    -0.40800
O1141       O  0.72647394  0.21756831  0.21239571    -0.77400
O1142       O  0.76288784  0.21052068  0.17586291    -0.96100
O1143       O  0.77960363  0.25884971  0.18603875    -0.89400
O1144       O  0.74011762  0.26619977  0.22474369    -0.92200
C1145       C  0.68475794  0.21184998  0.10211320     1.01500
C1146       C  0.66869895  0.28499238  0.16675737     1.14500
C1147       C  0.75468706  0.24398865  0.06903998     1.05200
O1148       O  0.79748577  0.20209889  0.11839486    -0.94400
O1149       O  0.81528310  0.22676123  0.17022197    -0.90100
O1150       O  0.80317998  0.21814082  0.21796607    -0.83300
C1151       C  0.81914168  0.22001481  0.19803703     1.11900
O1152       O  0.74256078  0.32560416  0.15639839    -0.96400
Zr1153     Zr  0.75375874  0.29170234  0.18628491     1.88900
O1154       O  0.79212921  0.26178540  0.23969480    -0.73000
O1155       O  0.80820656  0.26290062  0.11875458    -0.52300
O1156       O  0.78727513  0.31235181  0.16649880    -0.97000
O1157       O  0.73279572  0.32171920  0.21516622    -0.54200
O1158       O  0.77676067  0.29753745  0.23093102    -0.73500
C1159       C  0.79268842  0.28405221  0.24104863     0.98800
O1160       O  0.77276053  0.20056460  0.25700352    -0.62300
O1161       O  0.67030008  0.22491549  0.22370658    -0.57200
O1162       O  0.74924271  0.23584732  0.27253383    -0.93800
O1163       O  0.71046405  0.24423573  0.26990275    -0.92300
O1164       O  0.68970734  0.18182494  0.18741331    -0.92600
O1165       O  0.73407233  0.16280053  0.18813887    -0.91400
C1166       C  0.72941354  0.23970915  0.28489543     1.17700
H1167       H  0.68304188  0.22911705  0.16182104     0.33600
H1168       H  0.77277111  0.19684112  0.17751207     0.44500
H1169       H  0.74067078  0.27382065  0.24443426     0.38000
H1170       H  0.75912358  0.28133371  0.12244826     0.34500
H1171       H  0.72419108  0.15919965  0.12368646     0.26200
H1172       H  0.81492556  0.27092107  0.13672742     0.32200
H1173       H  0.80104498  0.30369723  0.17434569     0.38100
H1174       H  0.68022294  0.17558488  0.17039848     0.32600
H1175       H  0.67657211  0.21364018  0.23869428     0.31400
H1176       H  0.67069115  0.27307841  0.25740863     0.33100
H1177       H  0.73321962  0.31645585  0.23664055     0.32100
H1178       H  0.73952814  0.16761803  0.20866789     0.36100
H1179       H  0.77831237  0.18750402  0.24395570     0.28800
H1180       H  0.72082431  0.29076296  0.08001773     0.33000
H1181       H  0.73765316  0.31926650  0.13638055     0.35900
H1182       H  0.65855162  0.23416894  0.23526013     0.28500
H1183       H  0.78656108  0.20517828  0.26917947     0.41400
H1184       H  0.81003623  0.20791867  0.10504863     0.31400
H1185       H  0.74146413  0.17690498  0.10926855     0.39100
H1186       H  0.71624755  0.32008611  0.20901033     0.30900
H1187       H  0.82091970  0.25246670  0.11141333     0.31000
H1188       H  0.70678932  0.30369950  0.10549608     0.31200
Zr1189     Zr  0.41019966  0.03816325  0.22475544     2.17500
O1190       O  0.43948334  0.02048238  0.19102783    -0.51100
O1191       O  0.43803559  0.01712834  0.25655718    -0.74300
O1192       O  0.43963420  0.06610349  0.21030577    -0.81100
O1193       O  0.36039785  0.00026084  0.19306875    -0.82900
O1194       O  0.43060438  0.10153833  0.23046421    -0.78500
O1195       O  0.39731739  0.01230169  0.18366727    -0.90100
O1196       O  0.43237194  0.03201997  0.30375122    -0.76100
O1197       O  0.41227722  0.06083288  0.27033124    -0.85600
O1198       O  0.38661760  0.01692156  0.25978214    -0.85300
O1199       O  0.39483042  0.07610140  0.21148695    -0.72000
O1200       O  0.37113815  0.03733129  0.20697076    -0.84200
Zr1201     Zr  0.33261086  0.07691636  0.27069669     2.26400
Zr1202     Zr  0.39467772  0.09778190  0.25896244     2.06300
Zr1203     Zr  0.34671215  0.01710102  0.24103130     2.10000
Zr1204     Zr  0.38918433  0.03977264  0.30520903     1.78800
O1205       O  0.32622472  0.98411051  0.21903812    -0.93000
O1206       O  0.40185369  0.06088034  0.35059830    -0.40800
O1207       O  0.34891655  0.03979955  0.28637961    -0.77400
O1208       O  0.37108593  0.07732281  0.29482583    -0.96100
O1209       O  0.35732320  0.09557630  0.23531066    -0.89400
O1210       O  0.33156169  0.05415317  0.22528035    -0.92200
C1211       C  0.44556220  0.02222107  0.28325887     1.01500
C1212       C  0.37870141  0.00128430  0.17618636     1.14500
C1213       C  0.44326221  0.08787946  0.21408003     1.05200
O1214       O  0.41204493  0.10514204  0.30877028    -0.94400
O1215       O  0.36531458  0.12908454  0.26135530    -0.90100
O1216       O  0.34002661  0.11397323  0.29401411    -0.83300
C1217       C  0.34661370  0.13068900  0.27741415     1.11900
O1218       O  0.37792605  0.06043458  0.14458115    -0.96400
Zr1219     Zr  0.35669250  0.07310653  0.19008746     1.88900
O1220       O  0.31250113  0.10640799  0.23754276    -0.73000
O1221       O  0.40818067  0.13775223  0.25578231    -0.52300
O1222       O  0.37000978  0.10456773  0.15783682    -0.97000
O1223       O  0.32698520  0.05652937  0.15673798    -0.54200
O1224       O  0.32973473  0.10482442  0.19085039    -0.73500
C1225       C  0.31597753  0.11426566  0.21025065     0.98800
O1226       O  0.30988328  0.07981042  0.31767847    -0.62300
O1227       O  0.35205751  0.98683550  0.27916145    -0.57200
O1228       O  0.29524108  0.05675076  0.26832653    -0.93800
O1229       O  0.30378814  0.02083437  0.24962323    -0.92300
O1230       O  0.39452225  0.99951666  0.32092949    -0.92600
O1231       O  0.36749344  0.03061925  0.35134954    -0.91400
C1232       C  0.28901623  0.03639129  0.25938756     1.17700
H1233       H  0.39280429  0.00135395  0.26224637     0.33600
H1234       H  0.37021369  0.08589985  0.31382844     0.44500
H1235       H  0.31612299  0.05345432  0.21651306     0.38000
H1236       H  0.40307943  0.08353131  0.19515684     0.34500
H1237       H  0.40805909  0.04875336  0.36446874     0.26200
H1238       H  0.42465782  0.13759557  0.26266959     0.32200
H1239       H  0.37668929  0.11602339  0.17226516     0.38100
H1240       H  0.40426714  0.00035678  0.33960529     0.32600
H1241       H  0.33622942  0.98424768  0.28743259     0.31400
H1242       H  0.31691085  0.97758777  0.23587540     0.33100
H1243       H  0.31197348  0.06346346  0.16365686     0.32100
H1244       H  0.35429978  0.02103441  0.34423151     0.36100
H1245       H  0.30768276  0.06354553  0.32419289     0.28800
H1246       H  0.45477570  0.02329461  0.20090306     0.33000
H1247       H  0.36597499  0.05621139  0.12925922     0.35900
H1248       H  0.35581030  0.97256747  0.26730509     0.28500
H1249       H  0.32081291  0.08614371  0.33307104     0.41400
H1250       H  0.42906599  0.10335173  0.30532725     0.31400
H1251       H  0.41590465  0.06927347  0.34400406     0.39100
H1252       H  0.32623596  0.03997629  0.16260972     0.30900
H1253       H  0.40877813  0.14134931  0.23370290     0.31000
H1254       H  0.43960327  0.03030327  0.17254272     0.31200
Zr1255     Zr  0.06922222  0.05160524  0.20719180     2.17500
O1256       O  0.03985230  0.07257048  0.23694145    -0.51100
O1257       O  0.04274190  0.02428675  0.18606249    -0.74300
O1258       O  0.04566175  0.06552081  0.16456814    -0.81100
O1259       O  0.09158020  0.02837452  0.27128936    -0.82900
O1260       O  0.06536809  0.08305802  0.12625805    -0.78500
O1261       O  0.05935843  0.02269067  0.24492281    -0.90100
O1262       O  0.06397625  0.00253100  0.15244997    -0.76100
O1263       O  0.08381270  0.04957301  0.15677216    -0.85600
O1264       O  0.09661899  0.01980535  0.20570551    -0.85300
O1265       O  0.08680418  0.08823728  0.19748396    -0.72000
O1266       O  0.09896829  0.05745690  0.24533997    -0.84200
Zr1267     Zr  0.15848551  0.06078232  0.18468852     2.26400
Zr1268     Zr  0.10416744  0.08476034  0.14744524     2.06300
Zr1269     Zr  0.12744843  0.02588767  0.24214325     2.10000
Zr1270     Zr  0.10711924  0.01609183  0.15470487     1.78800
O1271       O  0.13460787  0.01673688  0.29566920    -0.93000
O1272       O  0.09884835  0.01757178  0.10015858    -0.40800
O1273       O  0.13975845  0.02365788  0.19002443    -0.77400
O1274       O  0.12941099  0.05139450  0.14629597    -0.96100
O1275       O  0.13215875  0.09293733  0.18597183    -0.89400
O1276       O  0.14377149  0.06275755  0.23522294    -0.92200
C1277       C  0.04424518  0.00793061  0.16630925     1.01500
C1278       C  0.07455380  0.01543037  0.26411496     1.14500
C1279       C  0.04675536  0.07502422  0.13799189     1.05200
O1280       O  0.10696002  0.08248521  0.09201285    -0.94400
O1281       O  0.13802163  0.10469480  0.12709728    -0.90100
O1282       O  0.17054648  0.08799442  0.14714605    -0.83300
C1283       C  0.16030226  0.10289516  0.13014943     1.11900
O1284       O  0.08167722  0.11325708  0.25838164    -0.96400
Zr1285     Zr  0.11578845  0.09404006  0.23593037     1.88900
O1286       O  0.17984166  0.09025001  0.21549558    -0.73000
O1287       O  0.08992801  0.12482680  0.14779068    -0.52300
O1288       O  0.11701708  0.13577658  0.22769209    -0.97000
O1289       O  0.11706769  0.09287586  0.29151185    -0.54200
O1290       O  0.15356107  0.10804845  0.24718682    -0.73500
C1291       C  0.17423376  0.10455130  0.23732368     0.98800
O1292       O  0.18836819  0.04450193  0.15083014    -0.62300
O1293       O  0.12858389  0.98380429  0.23591040    -0.57200
O1294       O  0.18881109  0.04035030  0.21181187    -0.93800
O1295       O  0.17074253  0.02502576  0.25296875    -0.92300
O1296       O  0.11027816  0.97532834  0.16899655    -0.92600
O1297       O  0.13575009  0.99457596  0.12426888    -0.91400
C1298       C  0.18935976  0.03041613  0.23778323     1.17700
H1299       H  0.08981400  0.00539540  0.20970654     0.33600
H1300       H  0.13690171  0.05040951  0.12656932     0.44500
H1301       H  0.15556816  0.06496730  0.25067259     0.38000
H1302       H  0.07517520  0.10056087  0.19793887     0.34500
H1303       H  0.08159608  0.01807700  0.09869685     0.26200
H1304       H  0.10416359  0.13430931  0.14967414     0.32200
H1305       H  0.11804990  0.13749422  0.20526656     0.38100
H1306       H  0.09399139  0.97008878  0.17131814     0.32600
H1307       H  0.14346513  0.98052834  0.22513677     0.31400
H1308       H  0.14442576  0.00246638  0.29559322     0.33100
H1309       H  0.12302623  0.10827178  0.29772532     0.32100
H1310       H  0.14583343  0.00662438  0.11540350     0.36100
H1311       H  0.18792287  0.02753839  0.15429053     0.28800
H1312       H  0.02626451  0.06211005  0.23716769     0.33000
H1313       H  0.07207757  0.10045035  0.26627843     0.35900
H1314       H  0.13103036  0.97747456  0.25663008     0.28500
H1315       H  0.18198345  0.04636021  0.12993848     0.41400
H1316       H  0.10040607  0.09746515  0.08473558     0.31400
H1317       H  0.10372965  0.03324513  0.09384347     0.39100
H1318       H  0.12998565  0.08188727  0.29629345     0.30900
H1319       H  0.08438775  0.12759647  0.12668453     0.31000
H1320       H  0.03495954  0.08551459  0.22351398     0.31200
Zr1321     Zr  0.39710822  0.48710014  0.45406171     2.17500
O1322       O  0.42022254  0.49955371  0.49782320    -0.51100
O1323       O  0.42344026  0.50393439  0.41803250    -0.74300
O1324       O  0.43325299  0.46501731  0.45782042    -0.81100
O1325       O  0.35066742  0.52741387  0.48238840    -0.82900
O1326       O  0.42615188  0.42852841  0.44052647    -0.78500
O1327       O  0.38677358  0.52741209  0.46245480    -0.90100
O1328       O  0.41370253  0.48502245  0.37459370    -0.76100
O1329       O  0.39748550  0.46088166  0.41205910    -0.85600
O1330       O  0.36862079  0.50306891  0.41992998    -0.85300
O1331       O  0.38794007  0.44965321  0.47429915    -0.72000
O1332       O  0.36107406  0.48837535  0.48169804    -0.84200
Zr1333     Zr  0.32127647  0.44030822  0.42772773     2.26400
Zr1334     Zr  0.38504413  0.42424034  0.43062452     2.06300
Zr1335     Zr  0.33166836  0.50228583  0.44652133     2.10000
Zr1336     Zr  0.37033196  0.47712293  0.37813202     1.78800
O1337       O  0.30959735  0.53470023  0.46878975    -0.93000
O1338       O  0.38231100  0.45116325  0.33667236    -0.40800
O1339       O  0.33213960  0.47637362  0.40382233    -0.77400
O1340       O  0.35648164  0.44077463  0.39687743    -0.96100
O1341       O  0.35037789  0.42481622  0.46074121    -0.89400
O1342       O  0.32266536  0.46605722  0.46988396    -0.92200
C1343       C  0.42858034  0.49620451  0.39148523     1.01500
C1344       C  0.37161905  0.53459665  0.48176361     1.14500
C1345       C  0.43969834  0.44411966  0.45123727     1.05200
O1346       O  0.40919952  0.40488248  0.39215675    -0.94400
O1347       O  0.36506712  0.39362617  0.40247304    -0.90100
O1348       O  0.32676484  0.40457803  0.40071512    -0.83300
C1349       C  0.34381059  0.39103343  0.39382774     1.11900
O1350       O  0.38602559  0.44180302  0.03960301    -0.96400
Zr1351     Zr  0.35246241  0.45153627  0.50252364     1.88900
O1352       O  0.30839410  0.41244525  0.46710897    -0.73000
O1353       O  0.39208247  0.39172859  0.46490177    -0.52300
O1354       O  0.37222572  0.42221286  0.53339128    -0.97000
O1355       O  0.34416932  0.45738168  0.04380692    -0.54200
O1356       O  0.32502428  0.42160975  0.51242557    -0.73500
C1357       C  0.31166622  0.40912226  0.49602028     0.98800
O1358       O  0.28935790  0.43320747  0.39204189    -0.62300
O1359       O  0.32652724  0.52759351  0.40256326    -0.57200
O1360       O  0.28291431  0.45829934  0.43522034    -0.93800
O1361       O  0.28942092  0.49532620  0.45085076    -0.92300
O1362       O  0.36727764  0.51568743  0.35580146    -0.92600
O1363       O  0.34866508  0.47901233  0.33030604    -0.91400
C1364       C  0.27586195  0.47811204  0.44547368     1.17700
H1365       H  0.37236848  0.51849573  0.41313081     0.33600
H1366       H  0.35464212  0.43164608  0.37852697     0.44500
H1367       H  0.30852956  0.46617899  0.48180894     0.38000
H1368       H  0.40015946  0.44428586  0.48786676     0.34500
H1369       H  0.39366014  0.46019153  0.32471742     0.26200
H1370       H  0.39747041  0.37890373  0.45135436     0.32200
H1371       H  0.36324434  0.39699595  0.02940211     0.38100
H1372       H  0.38315582  0.51885340  0.34811028     0.32600
H1373       H  0.30956137  0.52736065  0.39818068     0.31400
H1374       H  0.29982069  0.54106018  0.45208873     0.33100
H1375       H  0.32710384  0.45488803  0.04342346     0.32100
H1376       H  0.33245261  0.48294971  0.33644639     0.36100
H1377       H  0.29680874  0.43138913  0.37176469     0.28800
H1378       H  0.42637238  0.51492058  0.49213615     0.33000
H1379       H  0.39438889  0.45651595  0.03646139     0.35900
H1380       H  0.32943614  0.54345425  0.41044251     0.28500
H1381       H  0.28345477  0.41760034  0.39706274     0.41400
H1382       H  0.41793753  0.41750014  0.38225812     0.31400
H1383       H  0.39191236  0.43896787  0.34666051     0.39100
H1384       H  0.34578010  0.47429655  0.04076983     0.30900
H1385       H  0.40614872  0.39602888  0.47672621     0.31000
H1386       H  0.43850418  0.49243209  0.99976785     0.31200
Zr1387     Zr  0.05881549  0.44542122  0.47327593     2.17500
O1388       O  0.02562669  0.44767368  0.43842242    -0.51100
O1389       O  0.03172500  0.47402321  0.49370539    -0.74300
O1390       O  0.03411309  0.41632169  0.49730308    -0.81100
O1391       O  0.09932993  0.47492447  0.41842726    -0.82900
O1392       O  0.05082518  0.38215911  0.50555891    -0.78500
O1393       O  0.06495642  0.45565335  0.41994307    -0.90100
O1394       O  0.04597103  0.48505395  0.02744713    -0.76100
O1395       O  0.06408547  0.43466706  0.52523824    -0.85600
O1396       O  0.08108010  0.47708710  0.49321357    -0.85300
O1397       O  0.07838855  0.40816577  0.47238938    -0.72000
O1398       O  0.09610203  0.44496569  0.45535644    -0.84200
Zr1399     Zr  0.14472799  0.42770982  0.51593055     2.26400
Zr1400     Zr  0.08623703  0.39865020  0.52570757     2.06300
Zr1401     Zr  0.11873688  0.47564128  0.46794095     2.10000
Zr1402     Zr  0.08769834  0.46943398  0.03281554     1.78800
O1403       O  0.13153946  0.50377500  0.43024937    -0.93000
O1404       O  0.06733943  0.46035653  0.08005264    -0.40800
O1405       O  0.12428200  0.46511569  0.51997668    -0.77400
O1406       O  0.11233544  0.43417143  0.03729279    -0.96100
O1407       O  0.12036123  0.39891562  0.49437077    -0.89400
O1408       O  0.13867325  0.43885164  0.46424430    -0.92200
C1409       C  0.02831493  0.48262256  0.52035470     1.01500
C1410       C  0.08113406  0.46633485  0.40556136     1.14500
C1411       C  0.03527078  0.39446796  0.49231345     1.05200
O1412       O  0.08021598  0.40856014  0.07223344    -0.94400
O1413       O  0.12572363  0.37627205  0.02431049    -0.90100
O1414       O  0.15416940  0.39942951  0.04092342    -0.83300
C1415       C  0.14669121  0.37928272  0.03398697     1.11900
O1416       O  0.08852488  0.40886644  0.39820573    -0.96400
Zr1417     Zr  0.11330890  0.41039194  0.44344527     1.88900
O1418       O  0.16909192  0.39751832  0.48815040    -0.73000
O1419       O  0.07849934  0.36039976  0.54699595    -0.52300
O1420       O  0.10297724  0.37029886  0.43168254    -0.97000
O1421       O  0.13199876  0.42275144  0.39637547    -0.54200
O1422       O  0.14841645  0.38766708  0.44587099    -0.73500
C1423       C  0.16583831  0.38501876  0.46374877     0.98800
O1424       O  0.17389742  0.44478203  0.04794313    -0.62300
O1425       O  0.11293346  0.51445000  0.48960667    -0.57200
O1426       O  0.17728658  0.45162415  0.50081182    -0.93800
O1427       O  0.16191803  0.47861841  0.46877297    -0.92300
O1428       O  0.09249443  0.51135734  0.03517086    -0.92600
O1429       O  0.10825109  0.48227641  0.07854471    -0.91400
C1430       C  0.17941991  0.46851709  0.48207175     1.17700
H1431       H  0.07319645  0.49192392  0.49091595     0.33600
H1432       H  0.11649452  0.43204492  0.05850694     0.44500
H1433       H  0.15291321  0.43887684  0.45246254     0.38000
H1434       H  0.07008104  0.39679187  0.46077388     0.34500
H1435       H  0.06246707  0.47564443  0.08859597     0.26200
H1436       H  0.06232265  0.36108369  0.55491912     0.32200
H1437       H  0.11223987  0.36605817  0.41333621     0.38100
H1438       H  0.07935374  0.51707441  0.04797399     0.32600
H1439       H  0.12830944  0.52201192  0.48793887     0.31400
H1440       H  0.14292098  0.49527341  0.41717642     0.33100
H1441       H  0.14495955  0.41146203  0.39302628     0.32100
H1442       H  0.12500982  0.48056295  0.07331681     0.36100
H1443       H  0.16417394  0.44433234  0.06659590     0.28800
H1444       H  0.01160621  0.44591711  0.45135854     0.33000
H1445       H  0.07281411  0.40496343  0.40590198     0.35900
H1446       H  0.10282156  0.52280776  0.47482507     0.28500
H1447       H  0.18555428  0.43208666  0.05053037     0.41400
H1448       H  0.06292357  0.40856700  0.07221922     0.31400
H1449       H  0.05253050  0.45321341  0.07339358     0.39100
H1450       H  0.13977427  0.43753611  0.40138825     0.30900
H1451       H  0.07784674  0.34968527  0.52922062     0.31000
H1452       H  0.02653448  0.43336553  0.42588644     0.31200
Zr1453     Zr  0.23204939  0.23212121  0.27482830     2.17500
O1454       O  0.20046847  0.22443256  0.23878995    -0.51100
O1455       O  0.25882616  0.20258331  0.25426043    -0.74300
O1456       O  0.23869270  0.24979712  0.22645742    -0.81100
O1457       O  0.21873981  0.18365114  0.32657396    -0.82900
O1458       O  0.25730453  0.28415158  0.23120870    -0.78500
O1459       O  0.20826286  0.19891966  0.28107776    -0.90100
O1460       O  0.28901003  0.22444214  0.26399433    -0.76100
O1461       O  0.26912765  0.25041802  0.27748479    -0.85600
O1462       O  0.25290448  0.21251868  0.31489164    -0.85300
O1463       O  0.22300607  0.27238926  0.28421039    -0.72000
O1464       O  0.20798677  0.23794263  0.31926442    -0.84200
Zr1465     Zr  0.25894947  0.27627666  0.37232119     2.26400
Zr1466     Zr  0.26049279  0.29035301  0.28711492     2.06300
Zr1467     Zr  0.22877407  0.21782106  0.35897674     2.10000
Zr1468     Zr  0.28937539  0.23130156  0.31808378     1.78800
O1469       O  0.18854771  0.21137012  0.37429117    -0.93000
O1470       O  0.33035529  0.22884609  0.30319415    -0.40800
O1471       O  0.26645367  0.23571204  0.36340291    -0.77400
O1472       O  0.28210688  0.27119060  0.32711826    -0.96100
O1473       O  0.23857498  0.29677227  0.33321397    -0.89400
O1474       O  0.22189479  0.25827674  0.36998758    -0.92200
C1475       C  0.28092143  0.20509255  0.25553867     1.01500
C1476       C  0.21168640  0.18164566  0.29860622     1.14500
C1477       C  0.24828671  0.26768770  0.21512724     1.05200
O1478       O  0.29376710  0.30521429  0.25920391    -0.94400
O1479       O  0.28519368  0.31759620  0.31463929    -0.90100
O1480       O  0.28383256  0.30888189  0.36532964    -0.83300
C1481       C  0.29149405  0.32038539  0.34261575     1.11900
O1482       O  0.16566229  0.27591849  0.30178784    -0.96400
Zr1483     Zr  0.20170895  0.27855338  0.33110602     1.88900
O1484       O  0.23589679  0.30581007  0.39952725    -0.73000
O1485       O  0.23735331  0.32474431  0.27446804    -0.52300
O1486       O  0.19068134  0.31485930  0.30639462    -0.97000
O1487       O  0.16753388  0.26753781  0.36058400    -0.54200
O1488       O  0.20080616  0.30518265  0.37542507    -0.73500
C1489       C  0.21454187  0.31258408  0.39667726     0.98800
O1490       O  0.29371616  0.27784311  0.40439744    -0.62300
O1491       O  0.24253542  0.18375824  0.38670900    -0.57200
O1492       O  0.25211988  0.25711839  0.41991372    -0.93800
O1493       O  0.23390496  0.22244931  0.41463999    -0.92300
O1494       O  0.29551350  0.19087961  0.33269549    -0.92600
O1495       O  0.32108241  0.24247665  0.35201686    -0.91400
C1496       C  0.24304710  0.23873452  0.43087226     1.17700
H1497       H  0.25572036  0.19631908  0.31040986     0.33600
H1498       H  0.29746042  0.27765169  0.32935769     0.44500
H1499       H  0.21353638  0.26015979  0.38899299     0.38000
H1500       H  0.21414060  0.27870811  0.26733599     0.34500
H1501       H  0.33382700  0.21208168  0.30050947     0.26200
H1502       H  0.24285693  0.33685742  0.28882517     0.32200
H1503       H  0.18728232  0.32585383  0.32332922     0.38100
H1504       H  0.31177006  0.19007289  0.34035434     0.32600
H1505       H  0.22831645  0.17461553  0.39050337     0.31400
H1506       H  0.18751882  0.19434485  0.37682638     0.33100
H1507       H  0.17248608  0.26809739  0.38224597     0.32100
H1508       H  0.31960324  0.23205554  0.36979420     0.36100
H1509       H  0.28913122  0.28768375  0.42202358     0.28800
H1510       H  0.20802436  0.21770619  0.22035737     0.33000
H1511       H  0.16508092  0.25949168  0.29502870     0.35900
H1512       H  0.25150995  0.17451494  0.37150917     0.28500
H1513       H  0.29595283  0.26204518  0.41281940     0.41400
H1514       H  0.30473641  0.29181282  0.25771298     0.31400
H1515       H  0.33105825  0.23541967  0.28239143     0.39100
H1516       H  0.16556285  0.25079835  0.35617626     0.30900
H1517       H  0.24329847  0.32958886  0.25430443     0.31000
H1518       H  0.19451024  0.23987899  0.23242374     0.31200
Zr1519     Zr  0.26140618  0.27617367  0.02595433     2.17500
O1520       O  0.28963522  0.28120579  0.49113940    -0.51100
O1521       O  0.23425760  0.30660714  0.00824229    -0.74300
O1522       O  0.25040664  0.25693418  0.47683466    -0.81100
O1523       O  0.27093340  0.32465895  0.07846208    -0.82900
O1524       O  0.23691937  0.22019115  0.47972089    -0.78500
O1525       O  0.28428865  0.30966605  0.03405729    -0.90100
O1526       O  0.20443419  0.28385398  0.01498642    -0.76100
O1527       O  0.22552420  0.25581033  0.02621089    -0.85600
O1528       O  0.23833862  0.29328155  0.06621785    -0.85300
O1529       O  0.27273417  0.23635848  0.03437298    -0.72000
O1530       O  0.28500264  0.27116275  0.07102957    -0.84200
Zr1531     Zr  0.23587364  0.22915277  0.12087989     2.26400
Zr1532     Zr  0.23628961  0.21642727  0.03467175     2.06300
Zr1533     Zr  0.26235977  0.28973316  0.11036841     2.10000
Zr1534     Zr  0.20308223  0.27188102  0.06718702     1.78800
O1535       O  0.30167733  0.29953769  0.12675757    -0.93000
O1536       O  0.16705863  0.25497158  0.04811648    -0.40800
O1537       O  0.22599025  0.26899726  0.11271182    -0.77400
O1538       O  0.21273949  0.23234340  0.07565858    -0.96100
O1539       O  0.25798201  0.21097184  0.08115095    -0.89400
O1540       O  0.27173957  0.24959125  0.12042691    -0.92200
C1541       C  0.21216970  0.30392490  0.00990099     1.01500
C1542       C  0.27890605  0.32692785  0.05095812     1.14500
C1543       C  0.24330086  0.23810842  0.46457843     1.05200
O1544       O  0.20092877  0.20635916  0.00692593    -0.94400
O1545       O  0.21767038  0.18440345  0.06010937    -0.90100
O1546       O  0.21893044  0.19154180  0.11144973    -0.83300
C1547       C  0.21367645  0.17912335  0.08801188     1.11900
O1548       O  0.32950254  0.23883263  0.05374103    -0.96400
Zr1549     Zr  0.29379241  0.23082869  0.08171093     1.88900
O1550       O  0.25985435  0.20182527  0.14845608    -0.73000
O1551       O  0.25746835  0.18266340  0.01465792    -0.52300
O1552       O  0.30832931  0.19626970  0.05517900    -0.97000
O1553       O  0.32676076  0.24132279  0.11411790    -0.54200
O1554       O  0.29447597  0.20175616  0.12342262    -0.73500
C1555       C  0.28074346  0.19428820  0.14457488     0.98800
O1556       O  0.20050912  0.22524415  0.15129254    -0.62300
O1557       O  0.24452751  0.32287337  0.13669233    -0.57200
O1558       O  0.24103248  0.24855128  0.16940906    -0.93800
O1559       O  0.25742688  0.28423755  0.16583434    -0.92300
O1560       O  0.18881972  0.31104906  0.07835595    -0.92600
O1561       O  0.17016052  0.27257454  0.10233187    -0.91400
C1562       C  0.24897301  0.26732938  0.18129607     1.17700
H1563       H  0.23433311  0.30942728  0.06319778     0.33600
H1564       H  0.19836368  0.22392826  0.07772476     0.44500
H1565       H  0.27990402  0.24803819  0.13962371     0.38000
H1566       H  0.28223987  0.23084383  0.01754860     0.34500
H1567       H  0.15612116  0.26826838  0.04548386     0.26200
H1568       H  0.27086866  0.18909875  0.00338926     0.32200
H1569       H  0.31778859  0.18786777  0.07061447     0.38100
H1570       H  0.19782133  0.31602265  0.09652076     0.32600
H1571       H  0.25787592  0.33195556  0.14442933     0.31400
H1572       H  0.29947025  0.30769168  0.14653930     0.33100
H1573       H  0.33775459  0.22794192  0.11252837     0.32100
H1574       H  0.17731280  0.27110492  0.12283530     0.36100
H1575       H  0.19776199  0.24066196  0.16088041     0.28800
H1576       H  0.28222764  0.28965940  0.47399448     0.33000
H1577       H  0.32424422  0.24789081  0.03580137     0.35900
H1578       H  0.23763880  0.33256923  0.12030463     0.28500
H1579       H  0.18778190  0.22390817  0.13607307     0.41400
H1580       H  0.18802572  0.20999258  0.02125938     0.31400
H1581       H  0.17080410  0.24989673  0.02702348     0.39100
H1582       H  0.32086082  0.24065302  0.13532251     0.30900
H1583       H  0.26453886  0.17526929  0.03285423     0.31000
H1584       H  0.29446045  0.26595296  0.48248386     0.31200
C1585       C  0.21685973  0.34890352  0.43096429     0.23800
C1586       C  0.20445495  0.32958164  0.41943990    -0.24300
C1587       C  0.18117919  0.32701239  0.42866677     0.18700
C1588       C  0.16984459  0.34417959  0.44601627     0.23700
C1589       C  0.18122389  0.36474377  0.45491345    -0.24300
C1590       C  0.20524899  0.36649941  0.44834630     0.18600
F1591       F  0.21697168  0.38588747  0.45658133    -0.14200
F1592       F  0.23971019  0.35155256  0.42373892    -0.16600
F1593       F  0.14687672  0.34133983  0.45249702    -0.16600
F1594       F  0.16897774  0.30797953  0.42010255    -0.14200
C1595       C  0.18178741  0.35721579  0.53917228     0.23800
C1596       C  0.16363450  0.35948429  0.03153939    -0.24300
C1597       C  0.15577236  0.33741817  0.02246147     0.18700
C1598       C  0.17156128  0.32012128  0.01317002     0.23700
C1599       C  0.19582479  0.32396423  0.01367033    -0.24300
C1600       C  0.19800098  0.34035543  0.52944836     0.18600
F1601       F  0.22099509  0.34396646  0.53496601    -0.14200
F1602       F  0.18997202  0.37665325  0.55298539    -0.16600
F1603       F  0.16292157  0.29946415  0.00361601    -0.16600
F1604       F  0.13263320  0.33255962  0.02172757    -0.14200
C1605       C  0.34049020  0.34910095  0.38419068     0.23800
C1606       C  0.33763092  0.37183128  0.37388265    -0.24300
C1607       C  0.32303948  0.37658650  0.34870456     0.18700
C1608       C  0.30886484  0.35932328  0.33677629     0.23700
C1609       C  0.30957056  0.33718899  0.34971367    -0.24300
C1610       C  0.32649889  0.33175413  0.37208047     0.18600
F1611       F  0.32839510  0.30998519  0.38362167    -0.14200
F1612       F  0.35469620  0.34427674  0.40825303    -0.16600
F1613       F  0.29282468  0.36486294  0.31503462    -0.16600
F1614       F  0.32078857  0.39855734  0.33786993    -0.14200
C1615       C  0.20941947  0.48190494  0.44370734     0.23800
C1616       C  0.20380024  0.47531934  0.47383283    -0.24300
C1617       C  0.22227707  0.47231384  0.49489506     0.18700
C1618       C  0.24559327  0.47472290  0.48574806     0.23700
C1619       C  0.25112902  0.47989836  0.45531963    -0.24300
C1620       C  0.23287583  0.48384148  0.43446312     0.18600
F1621       F  0.23776811  0.48868721  0.40488180    -0.14200
F1622       F  0.21421744  0.48538733  0.01698438    -0.16600
F1623       F  0.26294255  0.47077696  0.50634809    -0.16600
F1624       F  0.21784211  0.46642067  0.52427783    -0.14200
C1625       C  0.28406920  0.37529139  0.49656448     0.23800
C1626       C  0.30046321  0.38913551  0.51177233    -0.24300
C1627       C  0.30709444  0.38285394  0.54199471     0.18700
C1628       C  0.28842487  0.36968941  0.05314529     0.23700
C1629       C  0.28187235  0.35005246  0.03641026    -0.24300
C1630       C  0.27954165  0.35205381  0.00424541     0.18600
F1631       F  0.27151710  0.33411119  0.98712347    -0.14200
F1632       F  0.27659443  0.38066684  0.46799186    -0.16600
F1633       F  0.29024438  0.36876016  0.08402163    -0.16600
F1634       F  0.32281099  0.39548896  0.55806098    -0.14200
C1635       C  0.21153044  0.15553770  0.25258568     0.23800
C1636       C  0.20764361  0.15856767  0.28436005    -0.24300
C1637       C  0.19834447  0.14014522  0.30089414     0.18700
C1638       C  0.19050081  0.12033414  0.28544457     0.23700
C1639       C  0.19171397  0.11872967  0.25324689    -0.24300
C1640       C  0.20345628  0.13586859  0.23717661     0.18600
F1641       F  0.20460210  0.13497071  0.20621852    -0.14200
F1642       F  0.22195532  0.17228823  0.23596615    -0.16600
F1643       F  0.17933667  0.10375575  0.30155873    -0.16600
F1644       F  0.19478162  0.14218673  0.33143866    -0.14200
C1645       C  0.17970424  0.15314355  0.08135620     0.23800
C1646       C  0.20174772  0.15740689  0.09404073    -0.24300
C1647       C  0.21131872  0.14200948  0.11530047     0.18700
C1648       C  0.19841769  0.12337443  0.12559970     0.23700
C1649       C  0.17537174  0.11997262  0.11492923    -0.24300
C1650       C  0.16649250  0.13458843  0.09184104     0.18600
F1651       F  0.14477426  0.13147771  0.08015842    -0.14200
F1652       F  0.17036680  0.16781603  0.06033305    -0.16600
F1653       F  0.20819773  0.10956944  0.14730976    -0.16600
F1654       F  0.23307943  0.14540451  0.12664106    -0.14200
C1655       C  0.28978089  0.16443869  0.27046380     0.23800
C1656       C  0.29688224  0.18481805  0.25600999    -0.24300
C1657       C  0.32066016  0.18749857  0.24891599     0.18700
C1658       C  0.33715628  0.17051748  0.25721265     0.23700
C1659       C  0.33014448  0.15042804  0.27263830    -0.24300
C1660       C  0.30620786  0.14777752  0.27941782     0.18600
F1661       F  0.29834608  0.12872433  0.29411538    -0.14200
F1662       F  0.26701183  0.16106570  0.27753507    -0.16600
F1663       F  0.35996696  0.17384619  0.25026822    -0.16600
F1664       F  0.32797800  0.20679717  0.23429092    -0.14200
C1665       C  0.25380508  0.01385775  0.23947104     0.23800
C1666       C  0.26307059  0.03122001  0.25885183    -0.24300
C1667       C  0.24689631  0.04502475  0.27571062     0.18700
C1668       C  0.22255377  0.04269006  0.27164630     0.23700
C1669       C  0.21348634  0.02669218  0.25043352    -0.24300
C1670       C  0.22945304  0.01193911  0.23499001     0.18600
F1671       F  0.22146691  0.99652237  0.21397146    -0.14200
F1672       F  0.26827154  0.99969159  0.22307984    -0.16600
F1673       F  0.20785316  0.05749567  0.28667138    -0.16600
F1674       F  0.25457713  0.06155714  0.29540673    -0.14200
C1675       C  0.28186891  0.14098858  0.19700779     0.23800
C1676       C  0.30594325  0.13678944  0.19977176    -0.24300
C1677       C  0.32144763  0.15299186  0.18720789     0.18700
C1678       C  0.31325979  0.17206606  0.17053859     0.23700
C1679       C  0.28923903  0.17547770  0.16556241    -0.24300
C1680       C  0.27355153  0.16030043  0.18034033     0.18600
F1681       F  0.25012977  0.16353094  0.17773753    -0.14200
F1682       F  0.26646985  0.12575423  0.20880580    -0.16600
F1683       F  0.32897640  0.18722254  0.15927089    -0.16600
F1684       F  0.34488174  0.14998191  0.19054392    -0.14200
C1685       C  0.00017285  0.39468794  0.42124094     0.23800
C1686       C  0.01556294  0.38232895  0.40160440    -0.24300
C1687       C  0.03337969  0.36863963  0.41448245     0.18700
C1688       C  0.03729129  0.36936985  0.44590360     0.23700
C1689       C  0.02441711  0.38506152  0.46450930    -0.24300
C1690       C  0.00477677  0.39628121  0.45235476     0.18600
F1691       F  0.99079925  0.40983877  0.47031811    -0.14200
F1692       F  0.98047962  0.40514802  0.41053005    -0.16600
F1693       F  0.05532093  0.35658768  0.45743623    -0.16600
F1694       F  0.04740059  0.35506620  0.39662393    -0.14200
C1695       C  0.88308559  0.28299307  0.39775569     0.23800
C1696       C  0.88724697  0.28168942  0.36568235    -0.24300
C1697       C  0.87335589  0.26655218  0.34844339     0.18700
C1698       C  0.85425451  0.25550259  0.36192492     0.23700
C1699       C  0.84826614  0.25947151  0.39302157    -0.24300
C1700       C  0.86388785  0.27201328  0.41114286     0.18600
F1701       F  0.85973221  0.27512275  0.44142300    -0.14200
F1702       F  0.89680516  0.29603560  0.41626592    -0.16600
F1703       F  0.84086920  0.24170060  0.34394253    -0.16600
F1704       F  0.87720246  0.26353657  0.31808466    -0.14200
C1705       C  0.81406240  0.31593881  0.26685122     0.23800
C1706       C  0.81434356  0.29509143  0.25005266    -0.24300
C1707       C  0.83491692  0.28756500  0.23560090     0.18700
C1708       C  0.85502890  0.30054901  0.23795536     0.23700
C1709       C  0.85507951  0.32125094  0.25526732    -0.24300
C1710       C  0.83443075  0.32878545  0.26987952     0.18600
F1711       F  0.83409631  0.34808481  0.28785186    -0.14200
F1712       F  0.79402258  0.32392421  0.28000728    -0.16600
F1713       F  0.87442686  0.29289604  0.22292018    -0.16600
F1714       F  0.83511912  0.26853101  0.21714648    -0.14200
C1715       C  0.00008460  0.10232283  0.15158734     0.23800
C1716       C  0.99344299  0.08229810  0.16796356    -0.24300
C1717       C  0.99531720  0.06065244  0.15296029     0.18700
C1718       C  0.00939160  0.05913893  0.12684515     0.23700
C1719       C  0.02453111  0.07764612  0.12144589    -0.24300
C1720       C  0.01494327  0.09970440  0.12655402     0.18600
F1721       F  0.02517808  0.11867687  0.11451421    -0.14200
F1722       F  0.99413710  0.12405995  0.16112714    -0.16600
F1723       F  0.01402471  0.03821436  0.11397524    -0.16600
F1724       F  0.98614511  0.04113708  0.16499855    -0.14200
C1725       C  0.83730217  0.18118578  0.37218872     0.23800
C1726       C  0.81574773  0.17361370  0.36091390    -0.24300
C1727       C  0.81424116  0.15139952  0.34760581     0.18700
C1728       C  0.83427486  0.13742062  0.34430646     0.23700
C1729       C  0.85604617  0.14532202  0.35478891    -0.24300
C1730       C  0.85722199  0.16724268  0.36918856     0.18600
F1731       F  0.87779023  0.17535364  0.38015519    -0.14200
F1732       F  0.83887191  0.20162900  0.38763904    -0.16600
F1733       F  0.83253854  0.11674416  0.32944991    -0.16600
F1734       F  0.79340394  0.14336661  0.33750536    -0.14200
C1735       C  0.98053668  0.21831171  0.31816638     0.23800
C1736       C  0.98041884  0.20697430  0.28944642    -0.24300
C1737       C  0.98407759  0.22044624  0.26320402     0.18700
C1738       C  0.98544041  0.24484895  0.26547417     0.23700
C1739       C  0.98389878  0.25621958  0.29407192    -0.24300
C1740       C  0.98233412  0.24258618  0.32042152     0.18600
F1741       F  0.98002540  0.25296699  0.34820600    -0.14200
F1742       F  0.97738343  0.20596585  0.34411361    -0.16600
F1743       F  0.98649477  0.25754352  0.23950801    -0.16600
F1744       F  0.98397585  0.21029396  0.23513710    -0.14200
C1745       C  0.86665960  0.20329048  0.25459376     0.23800
C1746       C  0.88134700  0.18937525  0.23641671    -0.24300
C1747       C  0.87852157  0.19035508  0.20421074     0.18700
C1748       C  0.85935551  0.20199687  0.19096552     0.23700
C1749       C  0.84294384  0.21346590  0.20953852    -0.24300
C1750       C  0.84784173  0.21541510  0.24130337     0.18600
F1751       F  0.83332456  0.22772424  0.26005086    -0.14200
F1752       F  0.86892627  0.20325875  0.28546633    -0.16600
F1753       F  0.85571682  0.20006641  0.16041833    -0.16600
F1754       F  0.89328814  0.17828244  0.18556062    -0.14200
C1755       C  0.49361149  0.09167822  0.16080309     0.23800
C1756       C  0.48507674  0.10887068  0.14070885    -0.24300
C1757       C  0.46586255  0.12271513  0.14954266     0.18700
C1758       C  0.45355617  0.11740395  0.17598415     0.23700
C1759       C  0.46049704  0.09833589  0.19397847    -0.24300
C1760       C  0.48124421  0.08630822  0.18707044     0.18600
F1761       F  0.48871170  0.06835797  0.20462751    -0.14200
F1762       F  0.51349152  0.07944653  0.15454210    -0.16600
F1763       F  0.43330046  0.12912918  0.18185512    -0.16600
F1764       F  0.45777636  0.14008375  0.13138764    -0.14200
C1765       C  0.66899965  0.18175119  0.06568440     0.23800
C1766       C  0.66680201  0.20355248  0.08005704    -0.24300
C1767       C  0.64699442  0.21756600  0.07323234     0.18700
C1768       C  0.62888343  0.20900378  0.05489867     0.23700
C1769       C  0.63022541  0.18640694  0.04289977    -0.24300
C1770       C  0.65093191  0.17332883  0.04722482     0.18600
F1771       F  0.65258073  0.15129313  0.03615363    -0.14200
F1772       F  0.68836570  0.16831634  0.07010902    -0.16600
F1773       F  0.60897614  0.22183203  0.05159188    -0.16600
F1774       F  0.64416332  0.23884494  0.08637504    -0.14200
C1775       C  0.63791043  0.14965243  0.44084264     0.23800
C1776       C  0.61458819  0.15760230  0.44296802    -0.24300
C1777       C  0.61851814  0.16454279  0.92359140     0.18700
C1778       C  0.62766161  0.19715840  0.43580335     0.23700
C1779       C  0.65082224  0.18940395  0.43833134    -0.24300
C1780       C  0.65592782  0.16555552  0.43882893     0.18600
F1781       F  0.67839630  0.15773424  0.43787714    -0.14200
F1782       F  0.64341327  0.12669017  0.44278137    -0.16600
F1783       F  0.63270368  0.20007494  0.90443578    -0.16600
F1784       F  0.59927632  0.16721002  0.90572439    -0.14200
C1785       C  0.50580782  0.44160890  0.95639837     0.23800
C1786       C  0.51155040  0.41777216  0.95628845    -0.24300
C1787       C  0.48638525  0.40443142  0.48015596     0.18700
C1788       C  0.46934232  0.41270524  0.46018274     0.23700
C1789       C  0.46353625  0.43657898  0.45985747    -0.24300
C1790       C  0.47861877  0.45225191  0.47433586     0.18600
F1791       F  0.47556265  0.47556406  0.47140268    -0.14200
F1792       F  0.52009303  0.45759907  0.96924460    -0.16600
F1793       F  0.45714533  0.39702231  0.44346832    -0.16600
F1794       F  0.50380517  0.37977150  0.93553074    -0.14200
C1795       C  0.62885056  0.30057699  0.17926998     0.23800
C1796       C  0.65063430  0.30316234  0.16503312    -0.24300
C1797       C  0.65618862  0.32439914  0.15155776     0.18700
C1798       C  0.64015200  0.34269106  0.15181203     0.23700
C1799       C  0.61777106  0.33975705  0.16434637    -0.24300
C1800       C  0.61235391  0.31868612  0.17851273     0.18600
F1801       F  0.59110195  0.31566100  0.19149089    -0.14200
F1802       F  0.62335167  0.28035629  0.19313074    -0.16600
F1803       F  0.64635522  0.36294220  0.13857739    -0.16600
F1804       F  0.67744817  0.32769603  0.13871555    -0.14200
C1805       C  0.52927701  0.26309869  0.06570595     0.23800
C1806       C  0.53664052  0.27793360  0.04214213    -0.24300
C1807       C  0.54044922  0.26794339  0.01304029     0.18700
C1808       C  0.53838960  0.24376418  0.00817740     0.23700
C1809       C  0.53171689  0.22872866  0.03204883    -0.24300
C1810       C  0.52638353  0.23906316  0.06061074     0.18600
F1811       F  0.51910068  0.22582849  0.08419512    -0.14200
F1812       F  0.52489862  0.27187557  0.09400089    -0.16600
F1813       F  0.54320666  0.23510776  0.97993428    -0.16600
F1814       F  0.54731642  0.28141533  0.98945273    -0.14200
C1815       C  0.63729478  0.28729048  0.04270310     0.23800
C1816       C  0.64341371  0.30888121  0.05526819    -0.24300
C1817       C  0.66623413  0.31708391  0.05021674     0.18700
C1818       C  0.68145148  0.30551635  0.03018513     0.23700
C1819       C  0.67463790  0.28500785  0.01552161    -0.24300
C1820       C  0.65281096  0.27538431  0.02303164     0.18600
F1821       F  0.65215161  0.26025086  0.51891433    -0.14200
F1822       F  0.61548628  0.27891962  0.04687189    -0.16600
F1823       F  0.70277367  0.31464510  0.02468537    -0.16600
F1824       F  0.67303366  0.33761914  0.06256121    -0.14200
C1825       C  0.97492381  0.51643071  0.97803418     0.23800
C1826       C  0.95770438  0.51399579  0.51718129    -0.24300
C1827       C  0.96348469  0.49795826  0.54051897     0.18700
C1828       C  0.98677097  0.48874214  0.54362909     0.23700
C1829       C  0.00510342  0.49576171  0.52399696    -0.24300
C1830       C  0.99813256  0.50821756  0.98053129     0.18600
F1831       F  0.01210101  0.50974113  0.95559357    -0.14200
F1832       F  0.96822313  0.52459698  0.95032390    -0.16600
F1833       F  0.99089754  0.47172324  0.56430330    -0.16600
F1834       F  0.94637335  0.48996072  0.55892938    -0.14200
C1835       C  0.87712104  0.46520136  0.38046978     0.23800
C1836       C  0.89042961  0.48548809  0.38392879    -0.24300
C1837       C  0.90893128  0.48964613  0.36367543     0.18700
C1838       C  0.91489710  0.47310858  0.34169548     0.23700
C1839       C  0.90236146  0.45242748  0.33957016    -0.24300
C1840       C  0.88290399  0.44893930  0.35812166     0.18600
F1841       F  0.87105474  0.42867471  0.35684635    -0.14200
F1842       F  0.85957108  0.46017599  0.40006894    -0.16600
F1843       F  0.93376235  0.47660055  0.32361105    -0.16600
F1844       F  0.92164684  0.50933048  0.36556420    -0.14200
C1845       C  0.79058849  0.67389913  0.39749441     0.23800
C1846       C  0.76652802  0.67449270  0.39106766    -0.24300
C1847       C  0.75246676  0.65692672  0.40372777     0.18700
C1848       C  0.76267018  0.63822823  0.42009152     0.23700
C1849       C  0.78701931  0.63693724  0.42427421    -0.24300
C1850       C  0.80059403  0.65551447  0.41378486     0.18600
F1851       F  0.82405262  0.65548371  0.41851961    -0.14200
F1852       F  0.80472313  0.69100356  0.38750337    -0.16600
F1853       F  0.74899212  0.62075897  0.42997440    -0.16600
F1854       F  0.72906755  0.65703997  0.39869557    -0.14200
C1855       C  0.81025896  0.66998765  0.97632134     0.23800
C1856       C  0.80401692  0.64994493  0.99260220    -0.24300
C1857       C  0.78044322  0.64722911  0.00105010     0.18700
C1858       C  0.76370704  0.66405263  0.99366190     0.23700
C1859       C  0.77015544  0.68438511  0.97852166    -0.24300
C1860       C  0.79341995  0.68688632  0.96912399     0.18600
F1861       F  0.79990904  0.70592236  0.95324369    -0.14200
F1862       F  0.83259269  0.67327583  0.96707119    -0.16600
F1863       F  0.74457983  0.65963881  0.50175378    -0.16600
F1864       F  0.77542308  0.62609496  0.51655225    -0.14200
C1865       C  0.48776439  0.52506358  0.38135623     0.23800
C1866       C  0.50347986  0.50601954  0.38290742    -0.24300
C1867       C  0.49392887  0.48354623  0.38273755     0.18700
C1868       C  0.46943131  0.48025637  0.38196043     0.23700
C1869       C  0.45369166  0.49936646  0.38216445    -0.24300
C1870       C  0.46331733  0.52180482  0.38170271     0.18600
F1871       F  0.44895965  0.54072503  0.38347568    -0.14200
F1872       F  0.49608052  0.54702781  0.38191908    -0.16600
F1873       F  0.46109218  0.45834948  0.38368177    -0.16600
F1874       F  0.50835123  0.46471043  0.38455409    -0.14200
C1875       C  0.60284080  0.50452841  0.06987061     0.23800
C1876       C  0.58142037  0.50898163  0.05437422    -0.24300
C1877       C  0.56076757  0.50886079  0.07175155     0.18700
C1878       C  0.56156215  0.49942566  0.10123389     0.23700
C1879       C  0.58134380  0.48620584  0.10950447    -0.24300
C1880       C  0.60267263  0.49375992  0.09833702     0.18600
F1881       F  0.62290085  0.48480363  0.10977910    -0.14200
F1882       F  0.63679893  0.47252944  0.52527275    -0.16600
F1883       F  0.54160061  0.49691570  0.11720032    -0.16600
F1884       F  0.53996833  0.51553317  0.05957006    -0.14200
C1885       C  0.64943461  0.62601430  0.32107940     0.23800
C1886       C  0.63428169  0.62943419  0.34613547    -0.24300
C1887       C  0.63204360  0.65159607  0.35923458     0.18700
C1888       C  0.64629519  0.66948055  0.34943983     0.23700
C1889       C  0.66284012  0.66561474  0.32605864    -0.24300
C1890       C  0.66359654  0.64401692  0.31107270     0.18600
F1891       F  0.67928258  0.63977542  0.28841775    -0.14200
F1892       F  0.65154501  0.60481150  0.30751049    -0.16600
F1893       F  0.64443451  0.69038892  0.36370890    -0.16600
F1894       F  0.61772181  0.65541632  0.38350414    -0.14200
C1895       C  0.71603021  0.51575794  0.46359418     0.23800
C1896       C  0.71004613  0.51949281  0.43264182    -0.24300
C1897       C  0.72764801  0.52677249  0.41258288     0.18700
C1898       C  0.75042724  0.53051129  0.42309240     0.23700
C1899       C  0.75621897  0.52742078  0.45400379    -0.24300
C1900       C  0.73888147  0.51990175  0.47421942     0.18600
F1901       F  0.74389484  0.51717745  0.50431127    -0.14200
F1902       F  0.69935525  0.50987688  0.48404717    -0.16600
F1903       F  0.74228956  0.53414300  0.02041420    -0.16600
F1904       F  0.72252443  0.53127095  0.38290565    -0.14200
C1905       C  0.67269347  0.61769736  0.01781712     0.23800
C1906       C  0.67191479  0.61570472  0.47363273    -0.24300
C1907       C  0.66026200  0.63669226  0.46721017     0.18700
C1908       C  0.66457239  0.65669171  0.48457561     0.23700
C1909       C  0.68565062  0.65743890  0.01367233    -0.24300
C1910       C  0.68011677  0.63828892  0.03169454     0.18600
F1911       F  0.68005157  0.64002540  0.06262374    -0.14200
F1912       F  0.66594343  0.59992902  0.03586907    -0.16600
F1913       F  0.65259231  0.67647921  0.47759420    -0.16600
F1914       F  0.64330203  0.63746038  0.44550194    -0.14200
C1915       C  0.98459043  0.98390864  0.13529846     0.23800
C1916       C  0.97210301  0.98091006  0.16307784    -0.24300
C1917       C  0.98492617  0.98414062  0.19017118     0.18700
C1918       C  0.00837663  0.99090302  0.18994937     0.23700
C1919       C  0.02105359  0.99483736  0.16285521    -0.24300
C1920       C  0.00876575  0.99058177  0.13518651     0.18600
F1921       F  0.01977455  0.99342867  0.10808953    -0.14200
F1922       F  0.97365264  0.97993503  0.10829959    -0.16600
F1923       F  0.01872034  0.99436000  0.21720153    -0.16600
F1924       F  0.97450818  0.98120619  0.21770381    -0.14200
C1925       C  0.89831341  0.96730602  0.32352164     0.23800
C1926       C  0.91411973  0.95464086  0.30493211    -0.24300
C1927       C  0.93642033  0.96388461  0.30211563     0.18700
C1928       C  0.93766851  0.98788697  0.29965233     0.23700
C1929       C  0.91826976  0.00194759  0.30807536    -0.24300
C1930       C  0.89978346  0.99158125  0.32383537     0.18600
F1931       F  0.88223079  0.00457420  0.33628061    -0.14200
F1932       F  0.87861724  0.95717077  0.33390973    -0.16600
F1933       F  0.95665561  0.99693263  0.28606114    -0.16600
F1934       F  0.95430179  0.95051791  0.29118134    -0.14200
C1935       C  0.78038800  0.88563677  0.26290207     0.23800
C1936       C  0.77862445  0.88694923  0.23065739    -0.24300
C1937       C  0.76455523  0.87109267  0.21539867     0.18700
C1938       C  0.75573212  0.85206049  0.23106621     0.23700
C1939       C  0.76036796  0.84879354  0.26264711    -0.24300
C1940       C  0.77112691  0.86677472  0.27884032     0.18600
F1941       F  0.77513872  0.86482760  0.30928191    -0.14200
F1942       F  0.79420323  0.90069469  0.27832926    -0.16600
F1943       F  0.74430032  0.83574340  0.21456864    -0.16600
F1944       F  0.76243037  0.87198007  0.18454257    -0.14200
C1945       C  0.76606136  0.86342292  0.09146416     0.23800
C1946       C  0.77432171  0.84698181  0.07038297    -0.24300
C1947       C  0.79686586  0.84900578  0.05827386     0.18700
C1948       C  0.81178942  0.86627549  0.06913839     0.23700
C1949       C  0.80420208  0.88187322  0.09212414    -0.24300
C1950       C  0.78074723  0.88070081  0.10231347     0.18600
F1951       F  0.77226956  0.89514114  0.12443644    -0.14200
F1952       F  0.74393330  0.86218498  0.10242921    -0.16600
F1953       F  0.83392570  0.86697671  0.05817707    -0.16600
F1954       F  0.80499401  0.83319595  0.03760099    -0.14200
C1955       C  0.51116532  0.02660151  0.27119466     0.23800
C1956       C  0.52017548  0.00577343  0.28372705    -0.24300
C1957       C  0.50450323  0.99184593  0.30028670     0.18700
C1958       C  0.48036835  0.99780132  0.30233324     0.23700
C1959       C  0.47135228  0.01809617  0.28848350    -0.24300
C1960       C  0.48729039  0.03265771  0.27373349     0.18600
F1961       F  0.47938034  0.05241921  0.26030735    -0.14200
F1962       F  0.52538564  0.04082011  0.25531249    -0.16600
F1963       F  0.46559976  0.98296655  0.31617527    -0.16600
F1964       F  0.51212299  0.97144856  0.31232498    -0.14200
C1965       C  0.58985761  0.00645835  0.11042330     0.23800
C1966       C  0.60473066  0.01873537  0.13032197    -0.24300
C1967       C  0.61716524  0.03771131  0.11934641     0.18700
C1968       C  0.61265180  0.04586069  0.08988031     0.23700
C1969       C  0.59537703  0.03535053  0.07179789    -0.24300
C1970       C  0.58528905  0.01470036  0.08133634     0.18600
F1971       F  0.56861250  0.00433128  0.06408178    -0.14200
F1972       F  0.57840049  0.98730435  0.11982686    -0.16600
F1973       F  0.62255701  0.06592330  0.08077431    -0.16600
F1974       F  0.63165029  0.04973149  0.13803296    -0.14200
C1975       C  0.63601020  0.83880042  0.23544049     0.23800
C1976       C  0.64465643  0.85803205  0.25177369    -0.24300
C1977       C  0.66867253  0.85869982  0.25877575     0.18700
C1978       C  0.68364980  0.84104992  0.24916436     0.23700
C1979       C  0.67492548  0.82135430  0.23430046    -0.24300
C1980       C  0.65103705  0.82046434  0.22711126     0.18600
F1981       F  0.64230518  0.80184833  0.21195757    -0.14200
F1982       F  0.61314775  0.83774164  0.22734690    -0.16600
F1983       F  0.70665143  0.84295932  0.25582520    -0.16600
F1984       F  0.67813670  0.87686021  0.27411088    -0.14200
C1985       C  0.73797464  0.95756073  0.25752031     0.23800
C1986       C  0.72259248  0.97136790  0.23964265    -0.24300
C1987       C  0.73272789  0.98724636  0.21924418     0.18700
C1988       C  0.75711182  0.98774321  0.21489414     0.23700
C1989       C  0.77230879  0.97306528  0.23154113    -0.24300
C1990       C  0.76242950  0.95864663  0.25374199     0.18600
F1991       F  0.77636535  0.94407501  0.27003372    -0.14200
F1992       F  0.72939666  0.94228045  0.27800022    -0.16600
F1993       F  0.76584578  0.00172857  0.19296752    -0.16600
F1994       F  0.71901413  0.00123712  0.20173563    -0.14200
C1995       C  0.69442485  0.86426133  0.17799677     0.23800
C1996       C  0.67056086  0.86963020  0.18040699    -0.24300
C1997       C  0.65430717  0.85433891  0.16718443     0.18700
C1998       C  0.66166201  0.83490666  0.15041469     0.23700
C1999       C  0.68556024  0.83051405  0.14554417    -0.24300
C2000       C  0.70191767  0.84497622  0.16047592     0.18600
F2001       F  0.72518877  0.84139452  0.15656294    -0.14200
F2002       F  0.71045045  0.87854204  0.19069092    -0.16600
F2003       F  0.64524131  0.82065720  0.13846128    -0.16600
F2004       F  0.63100202  0.85855319  0.16999460    -0.14200
C2005       C  0.97393638  0.49950735  0.25317124     0.23800
C2006       C  0.99676172  0.50771383  0.24834461    -0.24300
C2007       C  0.01432350  0.49077704  0.24215936     0.18700
C2008       C  0.00950658  0.46656390  0.24298252     0.23700
C2009       C  0.98684637  0.45844944  0.24932455    -0.24300
C2010       C  0.96903878  0.47545159  0.25323082     0.18600
F2011       F  0.94690974  0.46868675  0.25927381    -0.14200
F2012       F  0.95650656  0.51486273  0.26011120    -0.16600
F2013       F  0.02741877  0.45106458  0.23991594    -0.16600
F2014       F  0.03671802  0.49758401  0.23828471    -0.14200
C2015       C  0.94430310  0.60806000  0.38087587     0.23800
C2016       C  0.96194028  0.59094224  0.37842861    -0.24300
C2017       C  0.97269086  0.58257379  0.40534635     0.18700
C2018       C  0.96461009  0.58960423  0.43378630     0.23700
C2019       C  0.94441308  0.60330787  0.43596369    -0.24300
C2020       C  0.93561120  0.61432878  0.40961817     0.18600
F2021       F  0.91694919  0.62909171  0.41128738    -0.14200
F2022       F  0.93427314  0.61736228  0.35556894    -0.16600
F2023       F  0.97485478  0.58084937  0.45927086    -0.16600
F2024       F  0.99042877  0.56674283  0.40448002    -0.14200
C2025       C  0.05723935  0.46763734  0.35747679     0.23800
C2026       C  0.07898996  0.46938645  0.37224723    -0.24300
C2027       C  0.09813974  0.47767939  0.35550138     0.18700
C2028       C  0.09413885  0.49023394  0.32895602     0.23700
C2029       C  0.07099705  0.49449600  0.31975239    -0.24300
C2030       C  0.05350573  0.47963829  0.33033943     0.18600
F2031       F  0.03157872  0.48078728  0.31847561    -0.14200
F2032       F  0.03891074  0.45708615  0.37092569    -0.16600
F2033       F  0.11215692  0.50194966  0.31642883    -0.16600
F2034       F  0.12025965  0.47620579  0.36661670    -0.14200
C2035       C  0.11717300  0.68763019  0.37763760     0.23800
C2036       C  0.10669126  0.66786344  0.39011928    -0.24300
C2037       C  0.11430550  0.66083839  0.41972732     0.18700
C2038       C  0.13284478  0.67195844  0.43486948     0.23700
C2039       C  0.14447523  0.69038381  0.42113957    -0.24300
C2040       C  0.13596821  0.69843703  0.39261788     0.18600
F2041       F  0.14656920  0.71632519  0.37841383    -0.14200
F2042       F  0.10988214  0.69610753  0.35032672    -0.16600
F2043       F  0.14070906  0.66333559  0.46183023    -0.16600
F2044       F  0.10471505  0.64231558  0.43376477    -0.14200
C2045       C  0.15050663  0.64673013  0.30626265     0.23800
C2046       C  0.14491940  0.62716255  0.28846416    -0.24300
C2047       C  0.16148008  0.61782080  0.26828866     0.18700
C2048       C  0.18237387  0.62949995  0.26344134     0.23700
C2049       C  0.18677941  0.65080830  0.27870745    -0.24300
C2050       C  0.17119645  0.65849289  0.30146613     0.18600
F2051       F  0.17516997  0.67819278  0.31779338    -0.14200
F2052       F  0.13524398  0.65519103  0.32734227    -0.16600
F2053       F  0.19714431  0.62095791  0.24175800    -0.16600
F2054       F  0.15657974  0.59869090  0.25127608    -0.14200
C2055       C  0.99379360  0.99368598  0.34048549     0.36600
C2056       C  0.99953795  0.00879846  0.31622225    -0.24300
C2057       C  0.01213198  0.99887431  0.29188723     0.18700
C2058       C  0.01741972  0.97498927  0.29020151     0.23700
C2059       C  0.01156333  0.95939377  0.31375829    -0.24300
C2060       C  0.99996457  0.96943358  0.33944877     0.18600
F2061       F  0.99374378  0.95572802  0.36307613    -0.14200
F2062       F  0.98116671  0.00201836  0.36443540    -0.16600
F2063       F  0.02771805  0.96711182  0.26436464    -0.16600
F2064       F  0.01863694  0.01263914  0.26860165    -0.14200
C2065       C  0.09235771  0.95834249  0.29977763     0.23800
C2066       C  0.09031845  0.94337431  0.27428364    -0.24300
C2067       C  0.08266809  0.95248143  0.24651504     0.18700
C2068       C  0.07351321  0.97474228  0.24526462     0.23700
C2069       C  0.07669631  0.99031371  0.26975516    -0.24300
C2070       C  0.08639596  0.98192114  0.29709657     0.18600
F2071       F  0.08940554  0.99636497  0.32136647    -0.14200
F2072       F  0.10002309  0.95029118  0.32713321    -0.16600
F2073       F  0.06162516  0.98077617  0.21972326    -0.16600
F2074       F  0.08377309  0.93972564  0.22038772    -0.14200
C2075       C  0.97611372  0.86056780  0.16187021     0.23800
C2076       C  0.99068989  0.87776858  0.17458168    -0.24300
C2077       C  0.99399938  0.89828998  0.15776529     0.18700
C2078       C  0.97892685  0.90349564  0.13356979     0.23700
C2079       C  0.95946085  0.88937146  0.12874741    -0.24300
C2080       C  0.96135565  0.86616006  0.13756338     0.18600
F2081       F  0.94482336  0.85079738  0.12880745    -0.14200
F2082       F  0.97462598  0.83910099  0.17421504    -0.16600
F2083       F  0.97945067  0.92498105  0.12105138    -0.16600
F2084       F  0.01010366  0.91418496  0.16612834    -0.14200
C2085       C  0.14531522  0.77297597  0.39096304     0.23800
C2086       C  0.16692450  0.77400231  0.37603284    -0.24300
C2087       C  0.17013559  0.79008862  0.35261351     0.18700
C2088       C  0.15205083  0.80536956  0.34455016     0.23700
C2089       C  0.13043816  0.80462569  0.35976143    -0.24300
C2090       C  0.12708417  0.78794493  0.38264262     0.18600
F2091       F  0.10642971  0.78669987  0.39772565    -0.14200
F2092       F  0.14248760  0.75868811  0.41521519    -0.16600
F2093       F  0.15558934  0.82065159  0.32159458    -0.16600
F2094       F  0.19113487  0.79162247  0.33849637    -0.14200
C2095       C  0.02410632  0.74043362  0.26716229     0.23800
C2096       C  0.01172486  0.75369801  0.28895842    -0.24300
C2097       C  0.00025866  0.74217574  0.31276360     0.18700
C2098       C  0.00191148  0.71790845  0.31547768     0.23700
C2099       C  0.01565234  0.70479662  0.29488467    -0.24300
C2100       C  0.02625061  0.71627022  0.27027036     0.18600
F2101       F  0.03946064  0.70413994  0.24978815    -0.14200
F2102       F  0.03587551  0.75105807  0.24438299    -0.16600
F2103       F  0.99167950  0.70750586  0.33965484    -0.16600
F2104       F  0.98849884  0.75463342  0.33437105    -0.14200
C2105       C  0.10274276  0.75112797  0.22492094     0.23800
C2106       C  0.09925256  0.75711324  0.25598254    -0.24300
C2107       C  0.11358786  0.74659287  0.27798158     0.18700
C2108       C  0.13349221  0.73403736  0.26886182     0.23700
C2109       C  0.13963965  0.73229254  0.23750019    -0.24300
C2110       C  0.12290504  0.73897915  0.21571014     0.18600
F2111       F  0.12701234  0.73589294  0.18542068    -0.14200
F2112       F  0.08794870  0.75932242  0.20311238    -0.16600
F2113       F  0.14784716  0.72558393  0.29101225    -0.16600
F2114       F  0.11014905  0.75089052  0.30818983    -0.14200
C2115       C  0.51911646  0.90110473  0.16899382     0.23800
C2116       C  0.51754807  0.92302358  0.18328657    -0.24300
C2117       C  0.50057770  0.93907311  0.17347744     0.18700
C2118       C  0.48684560  0.93426382  0.14810871     0.23700
C2119       C  0.48922900  0.91285369  0.13244610    -0.24300
C2120       C  0.50508230  0.89603849  0.14384250     0.18600
F2121       F  0.50776902  0.87494667  0.13012598    -0.14200
F2122       F  0.53542309  0.88514002  0.17777672    -0.16600
F2123       F  0.47150044  0.95093688  0.13883496    -0.16600
F2124       F  0.49798267  0.95998697  0.18770616    -0.14200
C2125       C  0.38999474  0.00236030  0.12131337     0.23800
C2126       C  0.37683938  0.99231084  0.14483814    -0.24300
C2127       C  0.36013872  0.97551003  0.13736071     0.18700
C2128       C  0.35849062  0.96709840  0.10759139     0.23700
C2129       C  0.37374291  0.97519279  0.08498496    -0.24300
C2130       C  0.38809839  0.99414133  0.09153617     0.18600
F2131       F  0.40203192  0.00320205  0.06966283    -0.14200
F2132       F  0.40511854  0.01982414  0.12702778    -0.16600
F2133       F  0.34360453  0.94944953  0.10180463    -0.16600
F2134       F  0.34627442  0.96621605  0.15910703    -0.14200
C2135       C  0.46755562  0.01904995  0.98181417     0.23800
C2136       C  0.48729598  0.02469257  0.99967865    -0.24300
C2137       C  0.49902276  0.00617838  0.01467252     0.18700
C2138       C  0.49071660  0.98334821  0.01334259     0.23700
C2139       C  0.47038519  0.97781925  0.99696613    -0.24300
C2140       C  0.45900185  0.99595199  0.98085099     0.18600
F2141       F  0.43859362  0.99171797  0.96616527    -0.14200
F2142       F  0.45562363  0.03608681  0.96696974    -0.16600
F2143       F  0.48001634  0.98287466  0.60043071    -0.16600
F2144       F  0.49508905  0.02637480  0.59678248    -0.14200
C2145       C  0.31606687  0.82813086  0.10205117     0.23800
C2146       C  0.33487773  0.81788584  0.08581885    -0.24300
C2147       C  0.33638085  0.79365457  0.08383224     0.18700
C2148       C  0.32043584  0.77987205  0.09962167     0.23700
C2149       C  0.30282227  0.79011287  0.11841247    -0.24300
C2150       C  0.30018897  0.81445669  0.11801500     0.18600
F2151       F  0.28264121  0.82520942  0.13369447    -0.14200
F2152       F  0.31355307  0.85161144  0.10339926    -0.16600
F2153       F  0.32309438  0.75645628  0.09744632    -0.16600
F2154       F  0.35440935  0.78328382  0.06867020    -0.14200
C2155       C  0.33049892  0.83677859  0.50209322     0.23800
C2156       C  0.35161601  0.83783296  0.48584561    -0.24300
C2157       C  0.35685086  0.82070835  0.46381833     0.18700
C2158       C  0.34168881  0.80225867  0.45902318     0.23700
C2159       C  0.32139508  0.80033344  0.47685539    -0.24300
C2160       C  0.31565286  0.81805067  0.49790032     0.18600
F2161       F  0.29577963  0.81715110  0.51473089    -0.14200
F2162       F  0.30981084  0.86172731  0.01696070    -0.16600
F2163       F  0.34752266  0.78565033  0.43812263    -0.16600
F2164       F  0.37712560  0.82136245  0.44782379    -0.14200
C2165       C  0.48930803  0.51347264  0.10795982     0.23800
C2166       C  0.48454189  0.52527034  0.08024246    -0.24300
C2167       C  0.48408598  0.51140429  0.05343693     0.18700
C2168       C  0.48977497  0.48746423  0.05386449     0.23700
C2169       C  0.49532068  0.47568485  0.08124326    -0.24300
C2170       C  0.49408298  0.48901258  0.10851870     0.18600
F2171       F  0.49908426  0.47875306  0.13561002    -0.14200
F2172       F  0.48915204  0.52554384  0.13467636    -0.16600
F2173       F  0.49035162  0.47572533  0.02686151    -0.16600
F2174       F  0.47866524  0.52116473  0.02614810    -0.14200
C2175       C  0.45670211  0.57329204  0.94243096     0.23800
C2176       C  0.45557114  0.59732781  0.94760072    -0.24300
C2177       C  0.52175410  0.62471092  0.51585927     0.18700
C2178       C  0.52195995  0.61387850  0.48712806     0.23700
C2179       C  0.52932549  0.59061997  0.48424349    -0.24300
C2180       C  0.53794058  0.57896673  0.51022859     0.18600
F2181       F  0.54637278  0.55688226  0.50835002    -0.14200
F2182       F  0.44177234  0.55873350  0.95654964    -0.16600
F2183       F  0.51483239  0.62598317  0.46221695    -0.16600
F2184       F  0.51302680  0.64668101  0.51828661    -0.14200
C2185       C  0.40221711  0.51748516  0.09698063     0.23800
C2186       C  0.38824066  0.53624324  0.10682407    -0.24300
C2187       C  0.36567276  0.53817506  0.09479937     0.18700
C2188       C  0.36149648  0.52936518  0.06554608     0.23700
C2189       C  0.37917256  0.51639792  0.05039723    -0.24300
C2190       C  0.39868444  0.50871132  0.06758010     0.18600
F2191       F  0.41528098  0.49438415  0.05538501    -0.14200
F2192       F  0.42301071  0.51321450  0.11096485    -0.16600
F2193       F  0.40141871  0.57242039  0.47316888    -0.16600
F2194       F  0.35027536  0.55373296  0.10708152    -0.14200
C2195       C  0.37703767  0.66633116  0.20870644     0.23800
C2196       C  0.39441591  0.67671048  0.19102284    -0.24300
C2197       C  0.39082232  0.69964926  0.18049818     0.18700
C2198       C  0.36887215  0.71023279  0.18312215     0.23700
C2199       C  0.35077894  0.69840238  0.19724021    -0.24300
C2200       C  0.35524557  0.67706736  0.21158560     0.18600
F2201       F  0.33794200  0.66584207  0.22641802    -0.14200
F2202       F  0.38039009  0.64477907  0.22050088    -0.16600
F2203       F  0.36504759  0.73161687  0.17106317    -0.16600
F2204       F  0.40759843  0.71085398  0.16468914    -0.14200
C2205       C  0.43964208  0.76635484  0.01551139     0.23800
C2206       C  0.44552093  0.78235767  0.03888446    -0.24300
C2207       C  0.45725362  0.77353922  0.06476271     0.18700
C2208       C  0.46122175  0.74956597  0.06833504     0.23700
C2209       C  0.45396677  0.73332023  0.04600295    -0.24300
C2210       C  0.44401079  0.74221209  0.01889041     0.18600
F2211       F  0.43736127  0.72750858  0.99624781    -0.14200
F2212       F  0.42943328  0.77402897  0.98939531    -0.16600
F2213       F  0.47169971  0.74220117  0.09444387    -0.16600
F2214       F  0.46386860  0.78799296  0.08772780    -0.14200
C2215       C  0.36556271  0.72353011  0.05171369     0.23800
C2216       C  0.36803034  0.70617741  0.07398545    -0.24300
C2217       C  0.34833112  0.69310973  0.08161649     0.18700
C2218       C  0.32798258  0.69441919  0.06370429     0.23700
C2219       C  0.32589891  0.71101525  0.04057587    -0.24300
C2220       C  0.34437502  0.72650180  0.03597427     0.18600
F2221       F  0.34250328  0.74337931  0.01455158    -0.14200
F2222       F  0.38426453  0.73631559  0.04350397    -0.16600
F2223       F  0.31718648  0.65386089  0.54775824    -0.16600
F2224       F  0.34979766  0.67715044  0.10416381    -0.14200
Zr2225     Zr  0.43114741  0.65829874  0.65216002     2.17500
O2226       O  0.42476553  0.68195851  0.69787419    -0.51100
O2227       O  0.39596114  0.67404627  0.62445985    -0.74300
O2228       O  0.44424161  0.69857491  0.64464276    -0.81100
O2229       O  0.38684080  0.61255318  0.66093283    -0.82900
O2230       O  0.47688276  0.69525216  0.61558857    -0.78500
O2231       O  0.40402049  0.64141048  0.68715729    -0.90100
O2232       O  0.40290893  0.66779123  0.57388918    -0.76100
O2233       O  0.45251465  0.66493472  0.60708758    -0.85600
O2234       O  0.41414445  0.63306861  0.61512076    -0.85300
O2235       O  0.47112576  0.64653616  0.66471353    -0.72000
O2236       O  0.43744177  0.61924531  0.67164188    -0.84200
Zr2237     Zr  0.47930979  0.58989165  0.59775504     2.26400
Zr2238     Zr  0.49189168  0.65436660  0.61834271     2.06300
Zr2239     Zr  0.41924783  0.59490965  0.63460835     2.10000
Zr2240     Zr  0.43548799  0.64092424  0.56976702     1.78800
O2241       O  0.41362359  0.56782934  0.67636957    -0.93000
O2242       O  0.45088734  0.67408396  0.54236963    -0.40800
O2243       O  0.44034792  0.60320190  0.58945432    -0.77400
O2244       O  0.47513396  0.62937466  0.57900429    -0.96100
O2245       O  0.49761855  0.61441744  0.63451203    -0.89400
O2246       O  0.45791672  0.58224828  0.64320414    -0.92200
C2247       C  0.39014340  0.67540361  0.59582397     1.01500
C2248       C  0.38627385  0.62927519  0.68017468     1.14500
C2249       C  0.46017528  0.70755579  0.62777742     1.05200
O2250       O  0.52197220  0.68198452  0.60461218    -0.94400
O2251       O  0.51813682  0.64187334  0.57768366    -0.90100
O2252       O  0.51831725  0.60527480  0.59253574    -0.83300
C2253       C  0.52327977  0.62053597  0.57276555     1.11900
O2254       O  0.48457263  0.62297683  0.72974544    -0.96400
Zr2255     Zr  0.47709999  0.60549964  0.67994398     1.88900
O2256       O  0.49282426  0.55535349  0.62427559    -0.73000
O2257       O  0.51826029  0.65819082  0.66185569    -0.52300
O2258       O  0.51804296  0.60652866  0.69505725    -0.97000
O2259       O  0.45656414  0.58792477  0.72251947    -0.54200
O2260       O  0.49109233  0.56341251  0.67507817    -0.73500
C2261       C  0.49459723  0.54910147  0.65225791     0.98800
O2262       O  0.49199262  0.56588785  0.55488328    -0.62300
O2263       O  0.38313770  0.58185100  0.61093483    -0.57200
O2264       O  0.45004855  0.57042740  0.56768211    -0.93800
O2265       O  0.42462158  0.56028335  0.60379319    -0.92300
O2266       O  0.40400249  0.62367455  0.54036886    -0.92600
O2267       O  0.44285709  0.62934100  0.51700331    -0.91400
C2268       C  0.43086902  0.56110915  0.57589396     1.17700
H2269       H  0.39752855  0.63442757  0.61203382     0.33600
H2270       H  0.48200252  0.63076299  0.55905631     0.44500
H2271       H  0.45565141  0.56620982  0.64835056     0.38000
H2272       H  0.47652430  0.65656615  0.68095248     0.34500
H2273       H  0.36534607  0.66261045  0.00892035     0.26200
H2274       H  0.53412575  0.65589368  0.65329596     0.32200
H2275       H  0.52608651  0.59533601  0.68126437     0.38100
H2276       H  0.39740653  0.61184931  0.55408465     0.32600
H2277       H  0.37304768  0.57702602  0.62804323     0.31400
H2278       H  0.41412414  0.55228431  0.66655546     0.33100
H2279       H  0.45463439  0.57148538  0.71640600     0.32100
H2280       H  0.37487147  0.60337284  0.02270545     0.36100
H2281       H  0.50780389  0.56014695  0.56026287     0.28800
H2282       H  0.41467624  0.69508368  0.69121186     0.33000
H2283       H  0.47125505  0.63382757  0.73313529     0.35900
H2284       H  0.37555571  0.59609264  0.60285768     0.28500
H2285       H  0.49392605  0.57677542  0.53772963     0.41400
H2286       H  0.51709447  0.68821357  0.58452370     0.31400
H2287       H  0.46705650  0.67581916  0.55005621     0.39100
H2288       H  0.44055844  0.59463936  0.72193293     0.30900
H2289       H  0.51742147  0.67485638  0.66754219     0.31000
H2290       H  0.44006329  0.68897083  0.70258195     0.31200
Zr2291     Zr  0.41088520  0.84285625  0.54800285     2.17500
O2292       O  0.38465359  0.81749225  0.98284631    -0.51100
O2293       O  0.37645612  0.82162786  0.56723136    -0.74300
O2294       O  0.43198998  0.80910952  0.56973592    -0.81100
O2295       O  0.36418187  0.87389520  0.50616780    -0.82900
O2296       O  0.45064530  0.82220729  0.61207821    -0.78500
O2297       O  0.39036401  0.84482081  0.50001320    -0.90100
O2298       O  0.36045444  0.84295608  0.60600092    -0.76100
O2299       O  0.41333660  0.84932273  0.60135339    -0.85600
O2300       O  0.38016675  0.86986731  0.56049308    -0.85300
O2301       O  0.44944247  0.85904535  0.55469818    -0.72000
O2302       O  0.41874971  0.87769043  0.51886461    -0.84200
Zr2303     Zr  0.42768642  0.92619393  0.59279733     2.26400
Zr2304     Zr  0.45120013  0.86501081  0.60883672     2.06300
Zr2305     Zr  0.38714224  0.90408058  0.53094910     2.10000
Zr2306     Zr  0.38338911  0.87666758  0.61376903     1.78800
O2307       O  0.37411828  0.93428247  0.96909169    -0.93000
O2308       O  0.38980835  0.85446092  0.66030482    -0.40800
O2309       O  0.38949884  0.91090435  0.58504329    -0.77400
O2310       O  0.42082576  0.89216131  0.62263034    -0.96100
O2311       O  0.45901706  0.90020416  0.58154143    -0.89400
O2312       O  0.42478883  0.92097457  0.53902142    -0.92200
C2313       C  0.36085662  0.82541945  0.58806206     1.01500
C2314       C  0.36989069  0.85345386  0.49683326     1.14500
C2315       C  0.44375514  0.80560163  0.59445905     1.05200
O2316       O  0.45895689  0.85024452  0.65984581    -0.94400
O2317       O  0.46525605  0.89195463  0.64743521    -0.90100
O2318       O  0.45149189  0.92832057  0.63760963    -0.83300
C2319       C  0.46331856  0.91377607  0.65348102     1.11900
O2320       O  0.44013744  0.87580515  0.93810790    -0.96400
Zr2321     Zr  0.45643569  0.89556456  0.52791938     1.88900
O2322       O  0.45617629  0.95252851  0.57299235    -0.73000
O2323       O  0.49194313  0.85767390  0.59585525    -0.52300
O2324       O  0.47781074  0.89128375  0.97236511    -0.97000
O2325       O  0.42181380  0.91679047  0.93737495    -0.54200
O2326       O  0.47111572  0.93696404  0.52958859    -0.73500
C2327       C  0.46907647  0.95392743  0.54926240     0.98800
O2328       O  0.41861784  0.95331034  0.63386065    -0.62300
O2329       O  0.35165956  0.92053631  0.50834512    -0.57200
O2330       O  0.40357748  0.95517137  0.56786224    -0.93800
O2331       O  0.37013294  0.93733569  0.55856026    -0.92300
O2332       O  0.34258823  0.88913365  0.61309711    -0.92600
O2333       O  0.37205721  0.90090812  0.65720456    -0.91400
C2334       C  0.38141545  0.95465498  0.56927670     1.17700
H2335       H  0.36469687  0.86404571  0.55689622     0.33600
H2336       H  0.42138401  0.89578449  0.64416955     0.44500
H2337       H  0.42618740  0.93528122  0.52783170     0.38000
H2338       H  0.46105767  0.84759224  0.54870108     0.34500
H2339       H  0.37437758  0.85424490  0.67041988     0.26200
H2340       H  0.50030803  0.87118925  0.60439539     0.32200
H2341       H  0.48665792  0.90312402  0.98387170     0.38100
H2342       H  0.34022731  0.89576235  0.59248914     0.32600
H2343       H  0.35117105  0.91460250  0.48707877     0.31400
H2344       H  0.37006546  0.95036469  0.97548397     0.33100
H2345       H  0.41849620  0.93325606  0.94260656     0.32100
H2346       H  0.37445925  0.91701420  0.65020905     0.36100
H2347       H  0.42042482  0.96884744  0.62475297     0.28800
H2348       H  0.38211707  0.80349222  0.99537562     0.33000
H2349       H  0.44655741  0.86065463  0.94493444     0.35900
H2350       H  0.33866582  0.91267305  0.51880083     0.28500
H2351       H  0.40171014  0.95147491  0.63731866     0.41400
H2352       H  0.44334155  0.84931775  0.66943184     0.31400
H2353       H  0.39245504  0.83821737  0.65338500     0.39100
H2354       H  0.40622086  0.90986036  0.93452267     0.30900
H2355       H  0.49672593  0.84452944  0.60901919     0.31000
H2356       H  0.39893292  0.81406359  0.97080636     0.31200
Zr2357     Zr  0.04621120  0.81017278  0.82334993     2.17500
O2358       O  0.03477290  0.79352368  0.87205101    -0.51100
O2359       O  0.06988003  0.77969720  0.79697396    -0.74300
O2360       O  0.01931857  0.77925497  0.81495103    -0.81100
O2361       O  0.10314588  0.83435563  0.85108205    -0.82900
O2362       O  0.00175909  0.78907845  0.77033246    -0.78500
O2363       O  0.07904909  0.80353373  0.85656271    -0.90100
O2364       O  0.06174583  0.78902578  0.74895123    -0.76100
O2365       O  0.03812395  0.81123439  0.77027559    -0.85600
O2366       O  0.07908488  0.82766611  0.79990623    -0.85300
O2367       O  0.01040566  0.83283357  0.81937710    -0.72000
O2368       O  0.04769800  0.84818893  0.84693440    -0.84200
Zr2369     Zr  0.03831674  0.88895723  0.76354838     2.26400
Zr2370     Zr  0.00289363  0.83262184  0.76559557     2.06300
Zr2371     Zr  0.08145989  0.86465692  0.82395837     2.10000
Zr2372     Zr  0.07066784  0.82941961  0.74723486     1.78800
O2373       O  0.08541335  0.88034470  0.87544094    -0.93000
O2374       O  0.06253259  0.82046133  0.69375868    -0.40800
O2375       O  0.07407251  0.86704996  0.76977387    -0.77400
O2376       O  0.03579614  0.85066614  0.74135887    -0.96100
O2377       O  0.00471601  0.87178071  0.78566121    -0.89400
O2378       O  0.04675435  0.88845552  0.81693974    -0.92200
C2379       C  0.07195717  0.77589413  0.76802969     1.01500
C2380       C  0.09860481  0.81371098  0.86012376     1.14500
C2381       C  0.00751281  0.77410912  0.79118081     1.05200
O2382       O  0.97667472  0.81302212  0.73029709    -0.94400
O2383       O  0.99487942  0.85339256  0.71806914    -0.90100
O2384       O  0.01607304  0.88646344  0.71615896    -0.83300
C2385       C  0.00196862  0.87172879  0.70432791     1.11900
O2386       O  0.99392690  0.85593448  0.88327687    -0.96400
Zr2387     Zr  0.01306728  0.87252786  0.83898932     1.88900
O2388       O  0.02189224  0.92412327  0.78754554    -0.73000
O2389       O  0.96469179  0.83944038  0.78855430    -0.52300
O2390       O  0.97092271  0.87850127  0.83559500    -0.97000
O2391       O  0.02477726  0.88862567  0.88818965    -0.54200
O2392       O  0.00760903  0.91579299  0.83418839    -0.73500
C2393       C  0.01255827  0.93055881  0.81300568     0.98800
O2394       O  0.03779541  0.91854051  0.72403921    -0.62300
O2395       O  0.12278440  0.86858522  0.81217217    -0.57200
O2396       O  0.07927586  0.89964253  0.76542371    -0.93800
O2397       O  0.09239405  0.90363792  0.81272469    -0.92300
O2398       O  0.11013714  0.81304041  0.74855527    -0.92600
O2399       O  0.09396097  0.85123425  0.71112668    -0.91400
C2400       C  0.08783647  0.91229271  0.78672443     1.17700
H2401       H  0.09319230  0.81848213  0.80196771     0.33600
H2402       H  0.03572780  0.85022228  0.71942074     0.44500
H2403       H  0.04961629  0.90372232  0.82524449     0.38000
H2404       H  0.99802231  0.82484610  0.82975855     0.34500
H2405       H  0.07634415  0.81147259  0.68659399     0.26200
H2406       H  0.95539199  0.84713811  0.77233353     0.32200
H2407       H  0.96853655  0.88933729  0.81835761     0.38100
H2408       H  0.11211426  0.80525241  0.72848441     0.32600
H2409       H  0.13062497  0.86982942  0.83227793     0.31400
H2410       H  0.09931807  0.89035676  0.87449139     0.33100
H2411       H  0.01257879  0.90040729  0.89318372     0.32100
H2412       H  0.08314972  0.86337100  0.70323535     0.36100
H2413       H  0.05103728  0.91462868  0.71035755     0.28800
H2414       H  0.03736097  0.77657229  0.86979199     0.33000
H2415       H  0.99944312  0.83957382  0.88379342     0.35900
H2416       H  0.12769808  0.85317947  0.80408198     0.28500
H2417       H  0.04195411  0.93327358  0.73418359     0.41400
H2418       H  0.98712298  0.80522914  0.71528357     0.31400
H2419       H  0.04976727  0.80903626  0.69429302     0.39100
H2420       H  0.03882914  0.89780943  0.88368121     0.30900
H2421       H  0.95788475  0.82379292  0.79031687     0.31000
H2422       H  0.01757819  0.79558807  0.87294164     0.31200
Zr2423     Zr  0.05935899  0.63494989  0.80915730     2.17500
O2424       O  0.07478208  0.66135329  0.77100033    -0.51100
O2425       O  0.07876347  0.65369959  0.85454358    -0.74300
O2426       O  0.03589420  0.67018524  0.80323174    -0.81100
O2427       O  0.11519741  0.59814671  0.80530079    -0.82900
O2428       O  0.99801658  0.66024132  0.80942288    -0.78500
O2429       O  0.10006882  0.63434712  0.79789462    -0.90100
O2430       O  0.07496843  0.63035867  0.89561393    -0.76100
O2431       O  0.03226351  0.63056082  0.84939931    -0.85600
O2432       O  0.07583535  0.60559181  0.84048072    -0.85300
O2433       O  0.02445310  0.62222421  0.78258432    -0.72000
O2434       O  0.06316503  0.60119415  0.77588430    -0.84200
Zr2435     Zr  0.01967925  0.55380821  0.82650680     2.26400
Zr2436     Zr  0.99742666  0.61854709  0.82375067     2.06300
Zr2437     Zr  0.08139837  0.57274258  0.80793324     2.10000
Zr2438     Zr  0.04871047  0.60037021  0.88040335     1.78800
O2439       O  0.10335789  0.56529367  0.76124465    -0.93000
O2440       O  0.02729528  0.62494643  0.91659091    -0.40800
O2441       O  0.05534723  0.56597196  0.84995039    -0.77400
O2442       O  0.01378197  0.58898376  0.85643948    -0.96100
O2443       O  0.00155509  0.58275259  0.79491614    -0.89400
O2444       O  0.04611082  0.55919896  0.78554450    -0.92200
C2445       C  0.08348099  0.64812310  0.88266776     1.01500
C2446       C  0.11716387  0.62014253  0.80135820     1.14500
C2447       C  0.01398691  0.67514640  0.80335901     1.05200
O2448       O  0.98052293  0.63039422  0.87250409    -0.94400
O2449       O  0.97143133  0.58576027  0.81910478    -0.90100
O2450       O  0.97925154  0.55247052  0.84133426    -0.83300
C2451       C  0.96807030  0.57172481  0.84104572     1.11900
O2452       O  0.02769960  0.61154252  0.70965992    -0.96400
Zr2453     Zr  0.02739639  0.58583221  0.75359238     1.88900
O2454       O  0.00275828  0.52880113  0.78882411    -0.73000
O2455       O  0.96014886  0.63231773  0.80321817    -0.52300
O2456       O  0.98865052  0.59055677  0.73123529    -0.97000
O2457       O  0.05389557  0.57273101  0.71337518    -0.54200
O2458       O  0.01408096  0.54421941  0.74365533    -0.73500
C2459       C  0.00559254  0.52738249  0.75996304     0.98800
O2460       O  0.01676439  0.52877001  0.87097204    -0.62300
O2461       O  0.10948158  0.55516262  0.84293584    -0.57200
O2462       O  0.04455474  0.52008574  0.81810737    -0.93800
O2463       O  0.08111561  0.53068617  0.80423682    -0.92300
O2464       O  0.07873723  0.58125333  0.91108895    -0.92600
O2465       O  0.03163327  0.57762032  0.92122109    -0.91400
C2466       C  0.06560452  0.51535263  0.80976773     1.17700
H2467       H  0.09065862  0.60980872  0.84922328     0.33600
H2468       H  0.00338807  0.58644240  0.87318038     0.44500
H2469       H  0.04919684  0.54556702  0.77327336     0.38000
H2470       H  0.01909976  0.63419612  0.76882338     0.34500
H2471       H  0.03636272  0.62392518  0.93581635     0.26200
H2472       H  0.95586366  0.64629537  0.81536756     0.32200
H2473       H  0.98015706  0.60115494  0.74538043     0.38100
H2474       H  0.09371679  0.58677011  0.90272704     0.32600
H2475       H  0.12354730  0.55209559  0.83035018     0.31400
H2476       H  0.11725015  0.55623816  0.76792487     0.33100
H2477       H  0.05962338  0.55728085  0.72009803     0.32100
H2478       H  0.03236300  0.56138261  0.91371750     0.36100
H2479       H  0.01154228  0.51364862  0.86276656     0.28800
H2480       H  0.07606596  0.67670768  0.78116185     0.33000
H2481       H  0.03542940  0.62579657  0.71707097     0.35900
H2482       H  0.11401340  0.56796425  0.85683998     0.28500
H2483       H  0.03310568  0.52588521  0.87756722     0.41400
H2484       H  0.98733680  0.64578489  0.87679760     0.31400
H2485       H  0.02963429  0.64105630  0.90953963     0.39100
H2486       H  0.06764136  0.58287496  0.71535619     0.30900
H2487       H  0.96373047  0.63818384  0.78255316     0.31000
H2488       H  0.06224480  0.66324493  0.75558997     0.31200
Zr2489     Zr  0.25819890  0.74952986  0.00513490     2.17500
O2490       O  0.27233513  0.77498346  0.54475062    -0.51100
O2491       O  0.29736661  0.72180920  0.53211953    -0.74300
O2492       O  0.24715039  0.73555827  0.55526700    -0.81100
O2493       O  0.28891252  0.77977989  0.93884819    -0.82900
O2494       O  0.21114602  0.71975251  0.54930934    -0.78500
O2495       O  0.28181471  0.78225364  0.98979570    -0.90100
O2496       O  0.29630719  0.69653717  0.00661145    -0.76100
O2497       O  0.24375975  0.71106369  0.00669763    -0.85600
O2498       O  0.27866903  0.72925508  0.96546435    -0.85300
O2499       O  0.21634408  0.75172183  0.00113673    -0.72000
O2500       O  0.24849995  0.76897825  0.95895607    -0.84200
Zr2501     Zr  0.21270376  0.71354599  0.91305075     2.26400
Zr2502     Zr  0.20228466  0.71229708  0.99908818     2.06300
Zr2503     Zr  0.26759547  0.74745474  0.91874011     2.10000
Zr2504     Zr  0.26457049  0.69073973  0.96852012     1.78800
O2505       O  0.27596554  0.77767978  0.88183842    -0.93000
O2506       O  0.25863113  0.66170978  0.00794505    -0.40800
O2507       O  0.25402933  0.70856616  0.92042294    -0.77400
O2508       O  0.22280701  0.69223852  0.95876218    -0.96100
O2509       O  0.19328644  0.73297169  0.95406337    -0.89400
O2510       O  0.22651595  0.75224482  0.91233866    -0.92200
C2511       C  0.30398966  0.71366945  0.02288441     1.01500
C2512       C  0.29084524  0.78975418  0.96490148     1.14500
C2513       C  0.22821805  0.72710527  0.56570447     1.05200
O2514       O  0.19542571  0.67414240  0.02066001    -0.94400
O2515       O  0.16768578  0.69570122  0.97114210    -0.90100
O2516       O  0.17557963  0.69624741  0.92020053    -0.83300
C2517       C  0.16208251  0.69224962  0.94265441     1.11900
O2518       O  0.20530814  0.79773081  0.99826196    -0.96400
Zr2519     Zr  0.20748349  0.77142917  0.95443675     1.88900
O2520       O  0.18385075  0.73991263  0.88975449    -0.73000
O2521       O  0.16842046  0.73102431  0.02288642    -0.52300
O2522       O  0.17635921  0.80069702  0.95320272    -0.97000
O2523       O  0.21729776  0.80212245  0.91873738    -0.54200
O2524       O  0.17279916  0.75442960  0.93442997    -0.73500
C2525       C  0.17008164  0.75276943  0.90575939     0.98800
O2526       O  0.20871889  0.67804075  0.88287859    -0.62300
O2527       O  0.30593454  0.72994499  0.90924011    -0.57200
O2528       O  0.22799840  0.71840922  0.86228551    -0.93800
O2529       O  0.26239634  0.73747813  0.86487821    -0.92300
O2530       O  0.29948589  0.67750713  0.94155207    -0.92600
O2531       O  0.26083968  0.65265722  0.94459489    -0.91400
C2532       C  0.24597153  0.72750577  0.85001691     1.17700
H2533       H  0.29541648  0.73002051  0.96761814     0.33600
H2534       H  0.21695562  0.67662396  0.95705544     0.44500
H2535       H  0.22307299  0.75975063  0.89316961     0.38000
H2536       H  0.21899993  0.76119393  0.51495074     0.34500
H2537       H  0.25939345  0.67033279  0.02757849     0.26200
H2538       H  0.16680738  0.72276277  0.53421877     0.32200
H2539       H  0.16351891  0.79410316  0.96538618     0.38100
H2540       H  0.30808805  0.66782457  0.95655011     0.32600
H2541       H  0.30948137  0.73383223  0.88776764     0.31400
H2542       H  0.29236286  0.77477262  0.87557858     0.33100
H2543       H  0.20745772  0.79924300  0.90051883     0.32100
H2544       H  0.24969891  0.65514709  0.92755703     0.36100
H2545       H  0.22488258  0.67370348  0.87692873     0.28800
H2546       H  0.27862212  0.76736607  0.56329427     0.33000
H2547       H  0.21708249  0.80970553  0.99396622     0.35900
H2548       H  0.31692530  0.73940965  0.92138001     0.28500
H2549       H  0.20431741  0.66593913  0.89768194     0.41400
H2550       H  0.17998418  0.67563280  0.03067953     0.31400
H2551       H  0.24202450  0.65740970  0.00591653     0.39100
H2552       H  0.23347899  0.79869226  0.91198072     0.30900
H2553       H  0.17575395  0.74753021  0.52572099     0.31000
H2554       H  0.25651335  0.78057435  0.55052039     0.31200
Zr2555     Zr  0.26641280  0.71896062  0.66061754     2.17500
O2556       O  0.28654958  0.69584804  0.62153747    -0.51100
O2557       O  0.29103365  0.74900758  0.64191251    -0.74300
O2558       O  0.24766287  0.72205659  0.61144001    -0.81100
O2559       O  0.30548805  0.69710062  0.72580110    -0.82900
O2560       O  0.20832180  0.72775026  0.61360304    -0.78500
O2561       O  0.29883266  0.69353657  0.67485983    -0.90100
O2562       O  0.27536006  0.78279909  0.65963900    -0.76100
O2563       O  0.23712623  0.74867799  0.66041122    -0.85600
O2564       O  0.27743042  0.74425586  0.70147198    -0.85300
O2565       O  0.22948554  0.69997561  0.66462188    -0.72000
O2566       O  0.26553601  0.69655664  0.70573616    -0.84200
Zr2567     Zr  0.21098020  0.72993557  0.75323345     2.26400
Zr2568     Zr  0.20009914  0.73029049  0.66820014     2.06300
Zr2569     Zr  0.27544690  0.72179155  0.74723831     2.10000
Zr2570     Zr  0.24791080  0.77363144  0.70108608     1.78800
O2571       O  0.29925553  0.69938298  0.78291988    -0.93000
O2572       O  0.22616149  0.80192552  0.67075674    -0.40800
O2573       O  0.24628494  0.75159900  0.74790535    -0.77400
O2574       O  0.21077040  0.75523087  0.70970958    -0.96100
O2575       O  0.20040067  0.70563573  0.71166296    -0.89400
O2576       O  0.24021368  0.70066801  0.75213634    -0.92200
C2577       C  0.28994340  0.77114316  0.64289038     1.01500
C2578       C  0.30995702  0.68835304  0.69948575     1.14500
C2579       C  0.22762633  0.72525338  0.59899989     1.05200
O2580       O  0.18195795  0.76613163  0.65000569    -0.94400
O2581       O  0.16211846  0.73358283  0.69533498    -0.90100
O2582       O  0.17016705  0.73484358  0.74599260    -0.83300
C2583       C  0.15587305  0.73510315  0.72367779     1.11900
O2584       O  0.24696826  0.64946232  0.67241579    -0.96400
Zr2585     Zr  0.23014239  0.67665945  0.70943578     1.88900
O2586       O  0.19334149  0.69559550  0.77592584    -0.73000
O2587       O  0.17301936  0.70552852  0.64059922    -0.52300
O2588       O  0.19753712  0.65615015  0.68650220    -0.97000
O2589       O  0.25106465  0.64536167  0.73543177    -0.54200
O2590       O  0.20713310  0.66383867  0.75078679    -0.73500
C2591       C  0.19464901  0.67348657  0.77138345     0.98800
O2592       O  0.19360371  0.76101875  0.78399321    -0.62300
O2593       O  0.30441209  0.75191523  0.75479757    -0.57200
O2594       O  0.22599973  0.72822385  0.80413880    -0.93800
O2595       O  0.26555072  0.72628559  0.80165161    -0.92300
O2596       O  0.27898197  0.79600298  0.72466461    -0.92600
O2597       O  0.23373726  0.80643881  0.73156626    -0.91400
C2598       C  0.24618947  0.72739340  0.81650508     1.17700
H2599       H  0.29290777  0.75038487  0.69889818     0.33600
H2600       H  0.19882756  0.76707012  0.71241769     0.44500
H2601       H  0.24061464  0.69169909  0.77069728     0.38000
H2602       H  0.22673042  0.69024938  0.64694998     0.34500
H2603       H  0.23685849  0.81519696  0.66869086     0.26200
H2604       H  0.16622315  0.69546269  0.65641839     0.32200
H2605       H  0.19798969  0.64060038  0.69602408     0.38100
H2606       H  0.27860018  0.79173049  0.74651375     0.32600
H2607       H  0.30565268  0.75370332  0.77723300     0.31400
H2608       H  0.31287789  0.70924878  0.78744396     0.33100
H2609       H  0.26715856  0.64565962  0.72723300     0.32100
H2610       H  0.21701719  0.80327914  0.73514617     0.36100
H2611       H  0.18562458  0.75289875  0.80077774     0.28800
H2612       H  0.29054370  0.70685721  0.60512411     0.33000
H2613       H  0.26127122  0.65714015  0.66514402     0.35900
H2614       H  0.31940104  0.74451771  0.74858885     0.28500
H2615       H  0.20690127  0.76895959  0.79386518     0.41400
H2616       H  0.17834721  0.76310407  0.62823299     0.31400
H2617       H  0.22548366  0.79501859  0.65001897     0.39100
H2618       H  0.24432446  0.63082295  0.72728232     0.30900
H2619       H  0.16003957  0.71607137  0.63449887     0.31000
H2620       H  0.27456158  0.68562714  0.61251256     0.31200
Zr2621     Zr  0.58299149  0.98268108  0.71744821     2.17500
O2622       O  0.55311956  0.00347220  0.68802808    -0.51100
O2623       O  0.55982370  0.00585793  0.75350607    -0.74300
O2624       O  0.54802695  0.96060060  0.70862617    -0.81100
O2625       O  0.63726121  0.01286438  0.68203198    -0.82900
O2626       O  0.54898909  0.93029097  0.74129660    -0.78500
O2627       O  0.59804608  0.00798039  0.67788994    -0.90100
O2628       O  0.56365353  0.98476955  0.79611385    -0.76100
O2629       O  0.57967799  0.95901201  0.76114917    -0.85600
O2630       O  0.61122173  0.99857239  0.75169907    -0.85300
O2631       O  0.59066156  0.94321787  0.70069597    -0.72000
O2632       O  0.62039368  0.97711526  0.69485937    -0.84200
Zr2633     Zr  0.65466013  0.93007366  0.75558866     2.26400
Zr2634     Zr  0.58971684  0.92024271  0.74655322     2.06300
Zr2635     Zr  0.64931283  0.99216657  0.72850267     2.10000
Zr2636     Zr  0.60654529  0.97475838  0.79570153     1.78800
O2637       O  0.67585264  0.01984850  0.70548762    -0.93000
O2638       O  0.59218349  0.95381154  0.83985451    -0.40800
O2639       O  0.64535241  0.96911717  0.77327196    -0.77400
O2640       O  0.61767349  0.93527885  0.78229732    -0.96100
O2641       O  0.62610568  0.91659737  0.72083161    -0.89400
O2642       O  0.65756548  0.95331670  0.71108321    -0.92200
C2643       C  0.55128673  0.99801090  0.77835413     1.01500
C2644       C  0.61763401  0.01556046  0.66801381     1.14500
C2645       C  0.53836744  0.94377946  0.72264852     1.05200
O2646       O  0.57661309  0.90391560  0.79461427    -0.94400
O2647       O  0.61131702  0.88368821  0.74695767    -0.90100
O2648       O  0.64003922  0.89486172  0.77766489    -0.83300
C2649       C  0.63046834  0.87945564  0.76105594     1.11900
O2650       O  0.61672345  0.95339044  0.62641046    -0.96400
Zr2651     Zr  0.62831466  0.93931858  0.67667714     1.88900
O2652       O  0.66942168  0.89942032  0.71943721    -0.73000
O2653       O  0.56972091  0.88962251  0.71853000    -0.52300
O2654       O  0.60389862  0.91366504  0.64618423    -0.97000
O2655       O  0.66296832  0.94913451  0.64713835    -0.54200
O2656       O  0.64813960  0.90255341  0.67581765    -0.73500
C2657       C  0.66262800  0.89180231  0.69299740     0.98800
O2658       O  0.67944602  0.92093150  0.79945997    -0.62300
O2659       O  0.65113715  0.02334573  0.76632643    -0.57200
O2660       O  0.69459611  0.94433106  0.75482377    -0.93800
O2661       O  0.69098279  0.98109783  0.73703658    -0.92300
O2662       O  0.60603345  0.01463069  0.81463821    -0.92600
O2663       O  0.63037639  0.97905746  0.84144654    -0.91400
C2664       C  0.70347395  0.96365576  0.74645460     1.17700
H2665       H  0.60786192  0.01479596  0.75559758     0.33600
H2666       H  0.61760413  0.92629984  0.80084682     0.44500
H2667       H  0.67282663  0.95172021  0.70192321     0.38000
H2668       H  0.57910657  0.93791334  0.68627135     0.34500
H2669       H  0.58324716  0.96560118  0.85173677     0.26200
H2670       H  0.55871735  0.88292258  0.73338061     0.32200
H2671       H  0.59889061  0.90152294  0.66057532     0.38100
H2672       H  0.59484584  0.01456331  0.83187025     0.32600
H2673       H  0.66746613  0.02293795  0.77382631     0.31400
H2674       H  0.68639746  0.02495306  0.72209573     0.33100
H2675       H  0.65992190  0.96495771  0.63919800     0.32100
H2676       H  0.64006074  0.96468366  0.84211824     0.36100
H2677       H  0.68166982  0.93599441  0.81004364     0.28800
H2678       H  0.55671578  0.02021112  0.68973572     0.33000
H2679       H  0.62397993  0.94269539  0.61124344     0.35900
H2680       H  0.64988047  0.03785021  0.75438108     0.28500
H2681       H  0.66953897  0.91211764  0.81366608     0.41400
H2682       H  0.56126243  0.91148841  0.79844403     0.31400
H2683       H  0.58010925  0.94340320  0.83146283     0.39100
H2684       H  0.66288333  0.93882938  0.62896136     0.30900
H2685       H  0.55976550  0.89752723  0.70317770     0.31000
H2686       H  0.55577421  0.99931922  0.66631612     0.31200
Zr2687     Zr  0.91948041  0.92150855  0.70398450     2.17500
O2688       O  0.94476952  0.89433013  0.73137237    -0.51100
O2689       O  0.95066573  0.94770804  0.69116958    -0.74300
O2690       O  0.94331269  0.90300103  0.66534720    -0.81100
O2691       O  0.89120790  0.93634196  0.77661405    -0.82900
O2692       O  0.92387833  0.89415666  0.62144212    -0.78500
O2693       O  0.92691515  0.93532369  0.75525995    -0.90100
O2694       O  0.93521286  0.97312234  0.65703008    -0.76100
O2695       O  0.90914577  0.93138918  0.65332374    -0.85600
O2696       O  0.90002825  0.95838271  0.70841496    -0.85300
O2697       O  0.89652032  0.89033373  0.68456059    -0.72000
O2698       O  0.88653779  0.91619544  0.73623814    -0.84200
Zr2699     Zr  0.83119683  0.92997816  0.67231022     2.26400
Zr2700     Zr  0.88355485  0.90205944  0.63444232     2.06300
Zr2701     Zr  0.86514652  0.95258847  0.73833201     2.10000
Zr2702     Zr  0.89104605  0.96798210  0.65717510     1.78800
O2703       O  0.85479267  0.96606662  0.78948239    -0.93000
O2704       O  0.90023199  0.96972835  0.60295471    -0.40800
O2705       O  0.85548425  0.96221985  0.68703565    -0.77400
O2706       O  0.86367851  0.93876933  0.63894435    -0.96100
O2707       O  0.85195604  0.89427449  0.66798448    -0.89400
O2708       O  0.84304431  0.92049786  0.72261546    -0.92200
C2709       C  0.95289136  0.96436694  0.67211291     1.01500
C2710       C  0.91322319  0.93975331  0.77786697     1.14500
C2711       C  0.94240647  0.89547487  0.63766370     1.05200
O2712       O  0.88619950  0.91573098  0.58196425    -0.94400
O2713       O  0.84854506  0.88807133  0.60891006    -0.90100
O2714       O  0.81740183  0.90509644  0.63215243    -0.83300
C2715       C  0.82643836  0.89106048  0.61260753     1.11900
O2716       O  0.89102305  0.85612907  0.74021332    -0.96400
Zr2717     Zr  0.86432956  0.88467047  0.71801722     1.88900
O2718       O  0.80282556  0.90558393  0.70042790    -0.73000
O2719       O  0.88901724  0.86126571  0.62048787    -0.52300
O2720       O  0.85820692  0.84646506  0.69546796    -0.97000
O2721       O  0.86023926  0.87966011  0.77294738    -0.54200
O2722       O  0.82384891  0.87768689  0.72533317    -0.73500
C2723       C  0.80469854  0.88803144  0.71864721     0.98800
O2724       O  0.80536482  0.95138193  0.63787712    -0.62300
O2725       O  0.87532685  0.99356699  0.73847597    -0.57200
O2726       O  0.80459283  0.95482956  0.69942039    -0.93800
O2727       O  0.82178517  0.95887142  0.74575915    -0.92300
O2728       O  0.89479374  0.00714309  0.67788052    -0.92600
O2729       O  0.86889505  0.99866311  0.63174310    -0.91400
C2730       C  0.80371888  0.95981828  0.72781543     1.17700
H2731       H  0.91021451  0.96969961  0.71762193     0.33600
H2732       H  0.85758400  0.94345511  0.61930795     0.44500
H2733       H  0.83090330  0.91909514  0.73764520     0.38000
H2734       H  0.90589095  0.87628638  0.68326621     0.34500
H2735       H  0.91008810  0.98362614  0.60092911     0.26200
H2736       H  0.89663611  0.86135678  0.60019958     0.32200
H2737       H  0.87005439  0.84513806  0.67907109     0.38100
H2738       H  0.91143729  0.00846896  0.68366441     0.32600
H2739       H  0.86020146  0.00204930  0.73983177     0.31400
H2740       H  0.84725123  0.98149557  0.78685542     0.33100
H2741       H  0.84863572  0.86720895  0.77532463     0.32100
H2742       H  0.85267481  0.99681401  0.63906815     0.36100
H2743       H  0.80911708  0.96791200  0.64147421     0.28800
H2744       H  0.96025994  0.90175953  0.73162961     0.33000
H2745       H  0.90493575  0.86513195  0.74614609     0.35900
H2746       H  0.88300619  0.99630730  0.75841817     0.28500
H2747       H  0.81143661  0.94810333  0.61711113     0.41400
H2748       H  0.87006415  0.92015656  0.57599012     0.31400
H2749       H  0.91111518  0.95648266  0.59935406     0.39100
H2750       H  0.85205404  0.89395047  0.78007774     0.30900
H2751       H  0.90111994  0.85514315  0.63457112     0.31000
H2752       H  0.94671205  0.88075487  0.71756627     0.31200
Zr2753     Zr  0.55531565  0.53051605  0.95210903     2.17500
O2754       O  0.52076301  0.51926393  0.98083409    -0.51100
O2755       O  0.53370703  0.50254831  0.92082445    -0.74300
O2756       O  0.52380029  0.55732648  0.94065851    -0.81100
O2757       O  0.60048449  0.50530778  0.00753035    -0.82900
O2758       O  0.53284187  0.58008576  0.90026370    -0.78500
O2759       O  0.56352193  0.51998206  0.00623267    -0.90100
O2760       O  0.54507507  0.51146114  0.87328829    -0.76100
O2761       O  0.56048747  0.54283165  0.90087980    -0.85600
O2762       O  0.58324109  0.50341681  0.93148857    -0.85300
O2763       O  0.56609025  0.57100867  0.95333740    -0.72000
O2764       O  0.59122093  0.53692161  0.97192947    -0.84200
Zr2765     Zr  0.63750719  0.56094461  0.91393659     2.26400
Zr2766     Zr  0.57493056  0.58159107  0.90150505     2.06300
Zr2767     Zr  0.61921510  0.50988997  0.95895774     2.10000
Zr2768     Zr  0.58788973  0.51646627  0.88001519     1.78800
O2769       O  0.63306528  0.48067720  0.99510920    -0.93000
O2770       O  0.58057639  0.52994550  0.82817213    -0.40800
O2771       O  0.62468485  0.52135514  0.90757631    -0.77400
O2772       O  0.60381389  0.55513846  0.88138281    -0.96100
O2773       O  0.60846997  0.58728912  0.93317811    -0.89400
O2774       O  0.63127709  0.54920947  0.96496304    -0.92200
C2775       C  0.52933992  0.50471508  0.89219050     1.01500
C2776       C  0.58143325  0.51152316  0.02063281     1.14500
C2777       C  0.51836412  0.57143279  0.91914309     1.05200
O2778       O  0.56012268  0.58994273  0.85046974    -0.94400
O2779       O  0.60025364  0.60609219  0.87100243    -0.90100
O2780       O  0.63724891  0.59260781  0.87867226    -0.83300
C2781       C  0.62240167  0.60639281  0.86626451     1.11900
O2782       O  0.59970580  0.56491952  0.52772530    -0.96400
Zr2783     Zr  0.60071931  0.57432420  0.98345999     1.88900
O2784       O  0.65759061  0.59010360  0.94576305    -0.73000
O2785       O  0.56377220  0.61959731  0.92198277    -0.52300
O2786       O  0.58851690  0.61499092  0.98892124    -0.97000
O2787       O  0.63639787  0.54025998  0.51847916    -0.54200
O2788       O  0.63630198  0.59491881  0.98902743    -0.73500
C2789       C  0.65411530  0.59891634  0.97256627     0.98800
O2790       O  0.66825812  0.55588999  0.87592880    -0.62300
O2791       O  0.62132085  0.47293808  0.93148810    -0.57200
O2792       O  0.67332011  0.54091835  0.92842723    -0.93800
O2793       O  0.66231146  0.51327239  0.96189195    -0.92300
O2794       O  0.58622386  0.47424127  0.87749455    -0.92600
O2795       O  0.61202568  0.49880697  0.84018589    -0.91400
C2796       C  0.67801693  0.52509523  0.94801701     1.17700
H2797       H  0.57782931  0.48765060  0.93301498     0.33600
H2798       H  0.60767628  0.55946674  0.86073633     0.44500
H2799       H  0.64494111  0.55070027  0.97774731     0.38000
H2800       H  0.55417394  0.58114770  0.96189371     0.34500
H2801       H  0.57111238  0.51761274  0.81857593     0.26200
H2802       H  0.56267225  0.62977023  0.90390010     0.32200
H2803       H  0.62397577  0.60610388  0.51016583     0.38100
H2804       H  0.57063682  0.47089153  0.86881590     0.32600
H2805       H  0.63798273  0.46815920  0.93248787     0.31400
H2806       H  0.64563244  0.48819908  0.00699445     0.33100
H2807       H  0.64814004  0.55068097  0.52766097     0.32100
H2808       H  0.62794982  0.49827336  0.84899460     0.36100
H2809       H  0.66009208  0.55554687  0.85600109     0.28800
H2810       H  0.52417740  0.50362812  0.98912501     0.33000
H2811       H  0.58979963  0.55103125  0.52834156     0.35900
H2812       H  0.61317861  0.46169211  0.94461379     0.28500
H2813       H  0.67703814  0.57060094  0.87610308     0.41400
H2814       H  0.55150769  0.60489272  0.85262330     0.31400
H2815       H  0.56952388  0.54319560  0.83070161     0.39100
H2816       H  0.64577763  0.52808373  0.50790656     0.30900
H2817       H  0.54742379  0.61801370  0.92894545     0.31000
H2818       H  0.53554861  0.51602774  0.49954558     0.31200
Zr2819     Zr  0.89572909  0.54669179  0.94504765     2.17500
O2820       O  0.91700515  0.55250668  0.89788529    -0.51100
O2821       O  0.92747022  0.52638865  0.96961155    -0.74300
O2822       O  0.91975111  0.57737415  0.96587696    -0.81100
O2823       O  0.85788086  0.49794339  0.91741800    -0.82900
O2824       O  0.90827717  0.61279292  0.95554702    -0.78500
O2825       O  0.89488869  0.51179209  0.91481050    -0.90100
O2826       O  0.91694952  0.52673361  0.52990481    -0.76100
O2827       O  0.89480925  0.56792244  0.99177067    -0.85600
O2828       O  0.87523469  0.52143435  0.97807321    -0.85300
O2829       O  0.87668452  0.58296974  0.93384951    -0.72000
O2830       O  0.85811814  0.54037433  0.92278209    -0.84200
Zr2831     Zr  0.81512142  0.57428523  0.99157559     2.26400
Zr2832     Zr  0.87319440  0.60342615  0.98272430     2.06300
Zr2833     Zr  0.83624707  0.51772254  0.95793341     2.10000
Zr2834     Zr  0.87448015  0.54072004  0.52950102     1.78800
O2835       O  0.81643533  0.48565294  0.93264805    -0.93000
O2836       O  0.89159946  0.55951455  0.57409490    -0.40800
O2837       O  0.83585777  0.53868081  0.00515306    -0.77400
O2838       O  0.85298981  0.57723660  0.52161468    -0.96100
O2839       O  0.83704886  0.59704977  0.95750872    -0.89400
O2840       O  0.81735429  0.55353055  0.94447467    -0.92200
C2841       C  0.93337380  0.52416345  0.99769065     1.01500
C2842       C  0.87873758  0.49788249  0.90659243     1.14500
C2843       C  0.92262825  0.59615800  0.95133669     1.05200
O2844       O  0.88948942  0.60559846  0.54586126    -0.94400
O2845       O  0.84463848  0.63089234  0.49279616    -0.90100
O2846       O  0.81767728  0.61206601  0.51922264    -0.83300
C2847       C  0.82463756  0.63024988  0.50581426     1.11900
O2848       O  0.85813923  0.56891563  0.86148599    -0.96400
Zr2849     Zr  0.83980267  0.57625344  0.91082154     1.88900
O2850       O  0.79028734  0.60104138  0.95997870    -0.73000
O2851       O  0.88223459  0.64474303  0.98480844    -0.52300
O2852       O  0.85229268  0.61110312  0.88455800    -0.97000
O2853       O  0.81235156  0.55933778  0.87456938    -0.54200
O2854       O  0.80735990  0.60256743  0.91319413    -0.73500
C2855       C  0.79235742  0.60958713  0.93281532     0.98800
O2856       O  0.78893025  0.57168450  0.53310975    -0.62300
O2857       O  0.84035002  0.48756175  0.99638840    -0.57200
O2858       O  0.78089800  0.54979601  0.98701167    -0.93800
O2859       O  0.79307873  0.51720515  0.96177315    -0.92300
O2860       O  0.87135794  0.50024448  0.54465589    -0.92600
O2861       O  0.85129457  0.53564249  0.57551448    -0.91400
C2862       C  0.77691649  0.53038566  0.97342785     1.17700
H2863       H  0.88311919  0.50654488  0.97969822     0.33600
H2864       H  0.84954571  0.58402186  0.54137059     0.44500
H2865       H  0.80231785  0.55182796  0.93487020     0.38000
H2866       H  0.88542439  0.59129525  0.91879366     0.34500
H2867       H  0.89486377  0.54672302  0.58855438     0.26200
H2868       H  0.89835667  0.64581995  0.99282675     0.32200
H2869       H  0.85614547  0.62219695  0.90113403     0.38100
H2870       H  0.88595438  0.49261784  0.53744740     0.32600
H2871       H  0.82467098  0.48063061  0.99789191     0.31400
H2872       H  0.82333243  0.47130218  0.94138980     0.33100
H2873       H  0.79660721  0.56252224  0.88306305     0.32100
H2874       H  0.83728206  0.54562688  0.57237718     0.36100
H2875       H  0.79435016  0.55763299  0.54411139     0.28800
H2876       H  0.92759493  0.53887775  0.89584872     0.33000
H2877       H  0.86037595  0.55185554  0.86042190     0.35900
H2878       H  0.85018327  0.47534765  0.98659889     0.28500
H2879       H  0.79188027  0.58458822  0.54757092     0.41400
H2880       H  0.90676678  0.60517394  0.54481670     0.31400
H2881       H  0.90726457  0.56435160  0.56727791     0.39100
H2882       H  0.81464049  0.54234762  0.87664615     0.30900
H2883       H  0.88321664  0.64983047  0.96327612     0.31000
H2884       H  0.90526123  0.55069057  0.88143651     0.31200
Zr2885     Zr  0.73260336  0.76864555  0.75149693     2.17500
O2886       O  0.76621465  0.77477030  0.71848994    -0.51100
O2887       O  0.70674972  0.79812721  0.73029131    -0.74300
O2888       O  0.72623620  0.75179753  0.70273385    -0.81100
O2889       O  0.74756595  0.81726039  0.80449577    -0.82900
O2890       O  0.70960037  0.71639511  0.70570174    -0.78500
O2891       O  0.75067210  0.80522637  0.75522275    -0.90100
O2892       O  0.67494742  0.77868564  0.74060136    -0.76100
O2893       O  0.69564939  0.75028119  0.75296395    -0.85600
O2894       O  0.71120392  0.78763690  0.79160248    -0.85300
O2895       O  0.74195973  0.72851871  0.75964812    -0.72000
O2896       O  0.75693548  0.76324810  0.79555112    -0.84200
Zr2897     Zr  0.70554273  0.72436043  0.84786241     2.26400
Zr2898     Zr  0.70459144  0.71045243  0.76147303     2.06300
Zr2899     Zr  0.73555414  0.78305876  0.83515046     2.10000
Zr2900     Zr  0.67469337  0.76859853  0.79376571     1.78800
O2901       O  0.77524962  0.79057891  0.85221908    -0.93000
O2902       O  0.63461182  0.76546348  0.77544710    -0.40800
O2903       O  0.69786704  0.76483071  0.83907555    -0.77400
O2904       O  0.68258167  0.72877799  0.80220020    -0.96100
O2905       O  0.72619425  0.70452560  0.80798470    -0.89400
O2906       O  0.74267351  0.74254511  0.84580055    -0.92200
C2907       C  0.68460598  0.79746142  0.73303805     1.01500
C2908       C  0.75201520  0.82077621  0.77590956     1.14500
C2909       C  0.71803703  0.73349467  0.69050020     1.05200
O2910       O  0.66966708  0.70012990  0.73300947    -0.94400
O2911       O  0.68225568  0.68105606  0.78758345    -0.90100
O2912       O  0.68140119  0.69076248  0.83826942    -0.83300
C2913       C  0.67549508  0.67819522  0.81524194     1.11900
O2914       O  0.79837754  0.72382647  0.77570068    -0.96400
Zr2915     Zr  0.76307167  0.72253060  0.80652109     1.88900
O2916       O  0.72818717  0.69421408  0.87336418    -0.73000
O2917       O  0.72628669  0.67539934  0.74714276    -0.52300
O2918       O  0.77511435  0.68584807  0.78292544    -0.97000
O2919       O  0.79743448  0.73427265  0.83537730    -0.54200
O2920       O  0.76311744  0.69494362  0.84914413    -0.73500
C2921       C  0.74930765  0.68706704  0.86979192     0.98800
O2922       O  0.67310938  0.72313813  0.88402688    -0.62300
O2923       O  0.71951761  0.81763176  0.86014839    -0.57200
O2924       O  0.71337760  0.74473354  0.89551254    -0.93800
O2925       O  0.73137122  0.77948804  0.89052926    -0.92300
O2926       O  0.66505613  0.80827835  0.80945787    -0.92600
O2927       O  0.64374092  0.75658875  0.82811671    -0.91400
C2928       C  0.72241183  0.76333478  0.90665703     1.17700
H2929       H  0.70840924  0.80390532  0.78787381     0.33600
H2930       H  0.66745329  0.72176108  0.80403379     0.44500
H2931       H  0.75114040  0.74071005  0.86473436     0.38000
H2932       H  0.75099705  0.72242719  0.74272158     0.34500
H2933       H  0.62949134  0.78154455  0.77088432     0.26200
H2934       H  0.71503864  0.66618041  0.73508632     0.32200
H2935       H  0.76701580  0.67373063  0.79465782     0.38100
H2936       H  0.64915099  0.81127521  0.80137427     0.32600
H2937       H  0.73308999  0.82787106  0.86326508     0.31400
H2938       H  0.77341487  0.79781823  0.87266604     0.33100
H2939       H  0.79253511  0.73438602  0.85704306     0.32100
H2940       H  0.63881215  0.77099577  0.83889834     0.36100
H2941       H  0.66937128  0.73960684  0.88881974     0.28800
H2942       H  0.75986219  0.78241384  0.69998448     0.33000
H2943       H  0.79689190  0.73851092  0.76418752     0.35900
H2944       H  0.71004143  0.82543723  0.84420667     0.28500
H2945       H  0.65939112  0.71792211  0.87219242     0.41400
H2946       H  0.65749947  0.71109816  0.74061038     0.31400
H2947       H  0.63583226  0.75768965  0.75525803     0.39100
H2948       H  0.79946129  0.75085536  0.83031130     0.30900
H2949       H  0.73790839  0.68058803  0.73201524     0.31000
H2950       H  0.77121678  0.75908746  0.71155452     0.31200
Zr2951     Zr  0.71018475  0.73081417  0.50105500     2.17500
O2952       O  0.67247373  0.72746277  0.96999129    -0.51100
O2953       O  0.73722127  0.70172798  0.48056519    -0.74300
O2954       O  0.71272102  0.74719617  0.95268591    -0.81100
O2955       O  0.69435693  0.68128575  0.55088254    -0.82900
O2956       O  0.73136789  0.78164949  0.95555375    -0.78500
O2957       O  0.68952548  0.69534237  0.50294312    -0.90100
O2958       O  0.76711213  0.72374993  0.49136631    -0.76100
O2959       O  0.74684665  0.74962750  0.50475965    -0.85600
O2960       O  0.73103198  0.71106286  0.54098268    -0.85300
O2961       O  0.69989947  0.77064416  0.51143368    -0.72000
O2962       O  0.68539867  0.73553724  0.54502635    -0.84200
Zr2963     Zr  0.73587517  0.77379696  0.59984644     2.26400
Zr2964     Zr  0.73706850  0.78910054  0.51465718     2.06300
Zr2965     Zr  0.70612129  0.71488104  0.58418104     2.10000
Zr2966     Zr  0.76724254  0.73069951  0.54535842     1.78800
O2967       O  0.66619376  0.70759923  0.60023838    -0.93000
O2968       O  0.80822562  0.73352550  0.53120150    -0.40800
O2969       O  0.74356308  0.73344355  0.59001323    -0.77400
O2970       O  0.75926633  0.77052475  0.55481449    -0.96100
O2971       O  0.71514238  0.79418052  0.56099585    -0.89400
O2972       O  0.69897805  0.75524510  0.59671120    -0.92200
C2973       C  0.75923727  0.70434271  0.48272534     1.01500
C2974       C  0.68842223  0.67902478  0.52239141     1.14500
C2975       C  0.72225151  0.76466958  0.94040455     1.05200
O2976       O  0.77223983  0.80318535  0.49021683    -0.94400
O2977       O  0.75748357  0.81898592  0.54238758    -0.90100
O2978       O  0.75722542  0.80968085  0.59302416    -0.83300
C2979       C  0.76304179  0.82246402  0.57037350     1.11900
O2980       O  0.64197956  0.77195101  0.53044635    -0.96400
Zr2981     Zr  0.67843427  0.77588620  0.55856560     1.88900
O2982       O  0.71258501  0.80206300  0.62718185    -0.73000
O2983       O  0.71305128  0.82208029  0.49870365    -0.52300
O2984       O  0.66657451  0.81198169  0.53399349    -0.97000
O2985       O  0.64443184  0.76456638  0.58825162    -0.54200
O2986       O  0.67806343  0.80394288  0.60187783    -0.73500
C2987       C  0.69206938  0.81059115  0.62334418     0.98800
O2988       O  0.76947007  0.77586915  0.63409745    -0.62300
O2989       O  0.72183616  0.68012238  0.60851795    -0.57200
O2990       O  0.72812854  0.75268439  0.64622440    -0.93800
O2991       O  0.70965357  0.71820634  0.64002148    -0.92300
O2992       O  0.77631541  0.69026977  0.55709932    -0.92600
O2993       O  0.79738455  0.74057041  0.58236495    -0.91400
C2994       C  0.71867580  0.73423398  0.65673693     1.17700
H2995       H  0.73385724  0.69485257  0.53646972     0.33600
H2996       H  0.77412245  0.77799754  0.55754414     0.44500
H2997       H  0.69051847  0.75680938  0.61567851     0.38000
H2998       H  0.69098614  0.77695443  0.49460268     0.34500
H2999       H  0.81338566  0.71740171  0.52668581     0.26200
H3000       H  0.71615876  0.83433156  0.51409434     0.32200
H3001       H  0.67655831  0.82397934  0.54341488     0.38100
H3002       H  0.79243759  0.69042925  0.56529096     0.32600
H3003       H  0.70860719  0.66922873  0.60902489     0.31400
H3004       H  0.65808612  0.70229267  0.58151650     0.33100
H3005       H  0.63936969  0.77881746  0.59929234     0.32100
H3006       H  0.79433335  0.73040997  0.60003774     0.36100
H3007       H  0.77233264  0.75972376  0.64093354     0.28800
H3008       H  0.67795467  0.71932302  0.95129500     0.33000
H3009       H  0.64670226  0.76542203  0.51038088     0.35900
H3010       H  0.73277275  0.67332655  0.59331257     0.28500
H3011       H  0.78294875  0.77912497  0.62072444     0.41400
H3012       H  0.78480669  0.79257806  0.49745421     0.31400
H3013       H  0.80816180  0.74144289  0.51120701     0.39100
H3014       H  0.65044732  0.75413081  0.60440032     0.30900
H3015       H  0.72058227  0.82766832  0.47984494     0.31000
H3016       H  0.66814835  0.74333829  0.96324410     0.31200
Zr3017     Zr  0.57711450  0.34183962  0.62031111     2.17500
O3018       O  0.58080223  0.30868743  0.65451335    -0.51100
O3019       O  0.61202939  0.32448953  0.59397433    -0.74300
O3020       O  0.55521515  0.30789773  0.60365103    -0.81100
O3021       O  0.62253542  0.37529751  0.66108278    -0.82900
O3022       O  0.53081934  0.31965281  0.56587732    -0.78500
O3023       O  0.59518016  0.34928401  0.66886775    -0.90100
O3024       O  0.62104866  0.34752859  0.55381162    -0.76100
O3025       O  0.56907307  0.35028013  0.56836840    -0.85600
O3026       O  0.60399540  0.37133258  0.60635623    -0.85300
O3027       O  0.53679125  0.35530592  0.62107840    -0.72000
O3028       O  0.56818876  0.37459929  0.65379415    -0.84200
Zr3029     Zr  0.54846578  0.42492124  0.58538158     2.26400
Zr3030     Zr  0.52910785  0.36274083  0.56834321     2.06300
Zr3031     Zr  0.59586916  0.40363617  0.64002587     2.10000
Zr3032     Zr  0.59543440  0.38027710  0.55478293     1.78800
O3033       O  0.58740479  0.41678966  0.69182548    -0.93000
O3034       O  0.59255263  0.36240740  0.50429130    -0.40800
O3035       O  0.58848117  0.41270330  0.58742196    -0.77400
O3036       O  0.55585985  0.39212499  0.55246040    -0.96100
O3037       O  0.52038600  0.39671203  0.59910242    -0.89400
O3038       O  0.55694336  0.41807099  0.63780918    -0.92200
C3039       C  0.62454428  0.32974138  0.57041330     1.01500
C3040       C  0.61647083  0.35510477  0.66931457     1.14500
C3041       C  0.54069712  0.30358753  0.58203934     1.05200
O3042       O  0.51768170  0.34545865  0.51976290    -0.94400
O3043       O  0.51192661  0.38927736  0.53118174    -0.90100
O3044       O  0.52138129  0.42640753  0.54334157    -0.83300
C3045       C  0.51134130  0.41130370  0.52635957     1.11900
O3046       O  0.51234550  0.36324745  0.68761638    -0.96400
Zr3047     Zr  0.52877861  0.39049490  0.65146440     1.88900
O3048       O  0.52101570  0.44974729  0.61242192    -0.73000
O3049       O  0.48954636  0.35607078  0.58626707    -0.52300
O3050       O  0.48680676  0.38728305  0.64369566    -0.97000
O3051       O  0.53434634  0.39771221  0.70587076    -0.54200
O3052       O  0.51621894  0.43249947  0.65840007    -0.73500
C3053       C  0.51472573  0.45038110  0.64047760     0.98800
O3054       O  0.55514299  0.45284265  0.54497507    -0.62300
O3055       O  0.63295433  0.42139937  0.65341026    -0.57200
O3056       O  0.57032742  0.45614749  0.60814096    -0.93800
O3057       O  0.60570496  0.44100382  0.61930138    -0.92300
O3058       O  0.63454456  0.39634714  0.55655819    -0.92600
O3059       O  0.59977444  0.40882969  0.51440738    -0.91400
C3060       C  0.59250963  0.45767094  0.61015232     1.17700
H3061       H  0.62014629  0.36651537  0.60783347     0.33600
H3062       H  0.55361838  0.39622453  0.53132367     0.44500
H3063       H  0.55652818  0.43186505  0.65041735     0.38000
H3064       H  0.52691365  0.34296682  0.62808884     0.34500
H3065       H  0.58680582  0.34654857  0.50812354     0.26200
H3066       H  0.47991317  0.35606911  0.56747034     0.32200
H3067       H  0.48074700  0.40346287  0.64423631     0.38100
H3068       H  0.63575690  0.40362170  0.57705295     0.32600
H3069       H  0.63562267  0.41768305  0.67518114     0.31400
H3070       H  0.59304714  0.40391931  0.70492033     0.33100
H3071       H  0.53860144  0.41428455  0.70739388     0.32100
H3072       H  0.60155379  0.42384452  0.52525649     0.36100
H3073       H  0.55005196  0.46799674  0.55362428     0.28800
H3074       H  0.58655855  0.29551761  0.64184755     0.33000
H3075       H  0.52433458  0.35076768  0.68940682     0.35900
H3076       H  0.64498506  0.41227234  0.64214719     0.28500
H3077       H  0.57233615  0.45375109  0.54342202     0.41400
H3078       H  0.53263477  0.34139663  0.50957976     0.31400
H3079       H  0.57924080  0.37044934  0.49427315     0.39100
H3080       H  0.54888379  0.38913597  0.71116570     0.30900
H3081       H  0.48967937  0.33969443  0.59302621     0.31000
H3082       H  0.56467164  0.30461965  0.66040468     0.31200
Zr3083     Zr  0.55971322  0.15999254  0.51188162     2.17500
O3084       O  0.56076351  0.18137345  0.95051033    -0.51100
O3085       O  0.59554195  0.18198798  0.52134574    -0.74300
O3086       O  0.54400844  0.19708406  0.53090194    -0.81100
O3087       O  0.60457502  0.12508101  0.47276593    -0.82900
O3088       O  0.52673806  0.18888471  0.57604640    -0.78500
O3089       O  0.58034078  0.14144116  0.94942190    -0.90100
O3090       O  0.59009217  0.17881724  0.57091202    -0.76100
O3091       O  0.55948171  0.16118898  0.56637549    -0.85600
O3092       O  0.59291071  0.13693976  0.52802805    -0.85300
O3093       O  0.52245047  0.14374707  0.52571051    -0.72000
O3094       O  0.55283684  0.12122786  0.49224961    -0.84200
Zr3095     Zr  0.54947518  0.08437074  0.57786427     2.26400
Zr3096     Zr  0.52286029  0.14595638  0.58026872     2.06300
Zr3097     Zr  0.58613704  0.09877129  0.50819552     2.10000
Zr3098     Zr  0.59182542  0.13805106  0.58238626     1.78800
O3099       O  0.56639289  0.06718122  0.95123389    -0.93000
O3100       O  0.61363511  0.15884737  0.62167087    -0.40800
O3101       O  0.58633166  0.09997937  0.56313098    -0.77400
O3102       O  0.55539311  0.12292451  0.59835907    -0.96100
O3103       O  0.51623793  0.10676954  0.56281767    -0.89400
O3104       O  0.55014487  0.08185438  0.52358299    -0.92200
C3105       C  0.60225356  0.18591286  0.54876423     1.01500
C3106       C  0.60044262  0.13193232  0.95153938     1.14500
C3107       C  0.53415777  0.20349399  0.55600779     1.05200
O3108       O  0.50819553  0.16778132  0.62419613    -0.94400
O3109       O  0.51271677  0.12523162  0.62665218    -0.90100
O3110       O  0.52805525  0.08867643  0.62475359    -0.83300
C3111       C  0.51629066  0.10493222  0.63796144     1.11900
O3112       O  0.49162393  0.12443043  0.93634348    -0.96400
Zr3113     Zr  0.51043368  0.10533104  0.97953967     1.88900
O3114       O  0.52196171  0.05378554  0.56559553    -0.73000
O3115       O  0.48243846  0.14988791  0.56355930    -0.52300
O3116       O  0.46888077  0.11194751  0.98850213    -0.97000
O3117       O  0.51712217  0.09021976  0.92810867    -0.54200
O3118       O  0.49543978  0.06459135  0.98321136    -0.73500
C3119       C  0.50978979  0.04818730  0.54204418     0.98800
O3120       O  0.56343001  0.06261580  0.62199347    -0.62300
O3121       O  0.62236990  0.08148603  0.48879708    -0.57200
O3122       O  0.57481966  0.05380212  0.55819431    -0.93800
O3123       O  0.60657738  0.07139937  0.54097317    -0.92300
O3124       O  0.63135233  0.12712044  0.56684424    -0.92600
O3125       O  0.59770500  0.12246084  0.63349578    -0.91400
C3126       C  0.59694303  0.05542310  0.55643506     1.17700
H3127       H  0.60782091  0.14250158  0.52128308     0.33600
H3128       H  0.55568313  0.12286196  0.62037336     0.44500
H3129       H  0.54943271  0.06609346  0.51600832     0.38000
H3130       H  0.51013650  0.15354912  0.51761284     0.34500
H3131       H  0.62669889  0.16627140  0.61085777     0.26200
H3132       H  0.47375793  0.13916470  0.57682403     0.32200
H3133       H  0.46253827  0.09649244  0.99333769     0.38100
H3134       H  0.64097291  0.12888749  0.58549162     0.32600
H3135       H  0.62111515  0.08204277  0.46626574     0.31400
H3136       H  0.57018106  0.05103866  0.95735272     0.33100
H3137       H  0.51891587  0.07321444  0.93062146     0.32100
H3138       H  0.59925232  0.10546535  0.63030064     0.36100
H3139       H  0.56164698  0.04605431  0.61637074     0.28800
H3140       H  0.56981026  0.19509862  0.95702246     0.33000
H3141       H  0.48863429  0.14060581  0.94321367     0.35900
H3142       H  0.63464307  0.09280928  0.49402097     0.28500
H3143       H  0.58048409  0.06510076  0.62257911     0.41400
H3144       H  0.52237711  0.17243582  0.63555377     0.31400
H3145       H  0.60330606  0.17191701  0.62809884     0.39100
H3146       H  0.53292061  0.09551406  0.92252599     0.30900
H3147       H  0.47754020  0.16560340  0.57052664     0.31000
H3148       H  0.54449236  0.18709783  0.94807874     0.31200
Zr3149     Zr  0.93569556  0.14320433  0.81171393     2.17500
O3150       O  0.93706025  0.16817913  0.85692130    -0.51100
O3151       O  0.91100786  0.16916796  0.77921825    -0.74300
O3152       O  0.96095598  0.17593568  0.80494292    -0.81100
O3153       O  0.88492495  0.10994246  0.84436009    -0.82900
O3154       O  0.98615461  0.16607596  0.76698487    -0.78500
O3155       O  0.90235578  0.14516139  0.84487362    -0.90100
O3156       O  0.90925120  0.15296670  0.73204377    -0.76100
O3157       O  0.94455965  0.13878311  0.75933601    -0.85600
O3158       O  0.90699737  0.11770651  0.79172037    -0.85300
O3159       O  0.97491269  0.12708977  0.81231627    -0.72000
O3160       O  0.94122233  0.10763714  0.84016694    -0.84200
Zr3161     Zr  0.95905909  0.06229565  0.76316602     2.26400
Zr3162     Zr  0.98344271  0.12359369  0.75919267     2.06300
Zr3163     Zr  0.91186807  0.08257159  0.81998821     2.10000
Zr3164     Zr  0.91597943  0.11269557  0.73972843     1.78800
O3165       O  0.90877989  0.07376655  0.87410917    -0.93000
O3166       O  0.92335458  0.12037511  0.68588608    -0.40800
O3167       O  0.91957563  0.07684242  0.76650360    -0.77400
O3168       O  0.95431305  0.09863861  0.73732333    -0.96100
O3169       O  0.98887898  0.08656247  0.78359877    -0.89400
O3170       O  0.95036495  0.06612114  0.81613758    -0.92200
C3171       C  0.90512111  0.16955533  0.75064370     1.01500
C3172       C  0.88531201  0.13176373  0.85073468     1.14500
C3173       C  0.97705867  0.18085077  0.78594301     1.05200
O3174       O  0.99857449  0.14666817  0.71750425    -0.94400
O3175       O  0.99628481  0.10174826  0.71472990    -0.90100
O3176       O  0.98126017  0.06539384  0.71583168    -0.83300
C3177       C  0.99233605  0.08181246  0.70258343     1.11900
O3178       O  0.99657318  0.11271608  0.87745196    -0.96400
Zr3179     Zr  0.97972989  0.08942709  0.83656290     1.88900
O3180       O  0.98649772  0.03581185  0.78784380    -0.73000
O3181       O  0.02335696  0.12201729  0.77832239    -0.52300
O3182       O  0.02213603  0.08999454  0.83232836    -0.97000
O3183       O  0.96993165  0.07791626  0.88836275    -0.54200
O3184       O  0.99053534  0.04682063  0.83731315    -0.73500
C3185       C  0.99225184  0.03144765  0.81560408     0.98800
O3186       O  0.95742091  0.03358916  0.72195562    -0.62300
O3187       O  0.87371619  0.06714911  0.80699930    -0.57200
O3188       O  0.92969895  0.03333933  0.77365058    -0.93800
O3189       O  0.91288879  0.04045562  0.81949975    -0.92300
O3190       O  0.87352692  0.11623891  0.74091589    -0.92600
O3191       O  0.90074402  0.08381176  0.70433947    -0.91400
C3192       C  0.92148269  0.02659166  0.79929568     1.17700
H3193       H  0.89145721  0.12433559  0.79288923     0.33600
H3194       H  0.95500681  0.09748462  0.71544842     0.44500
H3195       H  0.95104498  0.05168124  0.82699506     0.38000
H3196       H  0.98547088  0.13795612  0.82173432     0.34500
H3197       H  0.90916435  0.12866083  0.67858317     0.26200
H3198       H  0.03242577  0.11465610  0.76155268     0.32200
H3199       H  0.02674802  0.07412555  0.82563191     0.38100
H3200       H  0.86954329  0.12653776  0.72359777     0.32600
H3201       H  0.86592545  0.06491772  0.82692385     0.31400
H3202       H  0.89930584  0.05953524  0.87491085     0.33100
H3203       H  0.98270300  0.06715885  0.89450762     0.32100
H3204       H  0.91371885  0.07243913  0.70161746     0.36100
H3205       H  0.95846415  0.01810703  0.73150485     0.28800
H3206       H  0.93306440  0.18403363  0.84976437     0.33000
H3207       H  0.98589907  0.12632178  0.87945210     0.35900
H3208       H  0.86518991  0.08034513  0.79757317     0.28500
H3209       H  0.94128664  0.03471391  0.71388091     0.41400
H3210       H  0.98463870  0.15055618  0.70501093     0.31400
H3211       H  0.93566400  0.13229906  0.68592916     0.39100
H3212       H  0.95615739  0.06786706  0.88592559     0.30900
H3213       H  0.02841016  0.13839707  0.77851641     0.31000
H3214       H  0.95374210  0.16879349  0.86281384     0.31200
Zr3215     Zr  0.93213393  0.31717229  0.78232609     2.17500
O3216       O  0.91924422  0.28472453  0.75056662    -0.51100
O3217       O  0.90796505  0.29592380  0.82094957    -0.74300
O3218       O  0.96002111  0.28564756  0.77575815    -0.81100
O3219       O  0.87754280  0.34903569  0.77216688    -0.82900
O3220       O  0.99042713  0.29387504  0.80676989    -0.78500
O3221       O  0.90013010  0.32332626  0.74785636    -0.90100
O3222       O  0.91572972  0.31028271  0.86787684    -0.76100
O3223       O  0.95327830  0.32087575  0.82866620    -0.85600
O3224       O  0.90912674  0.34289644  0.81292539    -0.85300
O3225       O  0.96897203  0.33369921  0.76607971    -0.72000
O3226       O  0.93074089  0.35286237  0.75270490    -0.84200
Zr3227     Zr  0.96561069  0.39835093  0.81967033     2.26400
Zr3228     Zr  0.99005877  0.33650772  0.81293984     2.06300
Zr3229     Zr  0.90717684  0.37798738  0.78383206     2.10000
Zr3230     Zr  0.93037709  0.34774880  0.85855202     1.78800
O3231       O  0.90002809  0.39406559  0.73338758    -0.93000
O3232       O  0.95128455  0.33432478  0.90380227    -0.40800
O3233       O  0.92779353  0.38312826  0.83123846    -0.77400
O3234       O  0.96701729  0.36177152  0.84558801    -0.96100
O3235       O  0.98927435  0.37383721  0.78812645    -0.89400
O3236       O  0.94380897  0.39609563  0.77322112    -0.92200
C3237       C  0.90539642  0.29603962  0.85044205     1.01500
C3238       C  0.88026099  0.32962768  0.75809847     1.14500
C3239       C  0.97862970  0.27979401  0.79001402     1.05200
O3240       O  0.02111452  0.31530745  0.83928271    -0.94400
O3241       O  0.01144052  0.35557390  0.85355624    -0.90100
O3242       O  0.99870676  0.39324907  0.85449310    -0.83300
C3243       C  0.01039135  0.37595796  0.86551662     1.11900
O3244       O  0.97553050  0.34900072  0.69606748    -0.96400
Zr3245     Zr  0.96755609  0.37198860  0.74186606     1.88900
O3246       O  0.98271888  0.42729456  0.78651377    -0.73000
O3247       O  0.02106854  0.33951139  0.77531644    -0.52300
O3248       O  0.00858489  0.37068447  0.72710226    -0.97000
O3249       O  0.94572315  0.38648967  0.69795429    -0.54200
O3250       O  0.97852713  0.41415540  0.73798623    -0.73500
C3251       C  0.98361630  0.43032748  0.75759887     0.98800
O3252       O  0.97707588  0.42859151  0.85588977    -0.62300
O3253       O  0.86798464  0.39402704  0.79164790    -0.57200
O3254       O  0.93425342  0.42560095  0.83098159    -0.93800
O3255       O  0.89969430  0.41359183  0.81111186    -0.92300
O3256       O  0.89013063  0.35529680  0.87409616    -0.92600
O3257       O  0.92833329  0.37392682  0.90242475    -0.91400
C3258       C  0.91224818  0.42775127  0.82630570     1.17700
H3259       H  0.89398031  0.33692539  0.81811926     0.33600
H3260       H  0.97202414  0.36285318  0.86646543     0.44500
H3261       H  0.94070179  0.41122980  0.76464575     0.38000
H3262       H  0.97699293  0.32300544  0.75247467     0.34500
H3263       H  0.93912775  0.32785569  0.91722847     0.26200
H3264       H  0.03317157  0.34890962  0.78556398     0.32200
H3265       H  0.01236604  0.38670328  0.72090818     0.38100
H3266       H  0.88478155  0.36829102  0.86099695     0.32600
H3267       H  0.85996348  0.39236091  0.77173202     0.31400
H3268       H  0.89511271  0.38060774  0.72084957     0.33100
H3269       H  0.95777162  0.39028475  0.68265559     0.32100
H3270       H  0.92818442  0.38971080  0.89358972     0.36100
H3271       H  0.97505631  0.44347395  0.84494121     0.28800
H3272       H  0.92049612  0.27056118  0.76320782     0.33000
H3273       H  0.96137238  0.33955883  0.69313119     0.35900
H3274       H  0.86010452  0.38296594  0.80532806     0.28500
H3275       H  0.96493654  0.42896077  0.87198399     0.41400
H3276       H  0.01346614  0.30827038  0.85719035     0.31400
H3277       H  0.96044771  0.32062505  0.89669482     0.39100
H3278       H  0.93952628  0.40183876  0.70460607     0.30900
H3279       H  0.02798079  0.32368186  0.77405401     0.31000
H3280       H  0.93088604  0.28267142  0.73402448     0.31200
Zr3281     Zr  0.71992244  0.22407826  0.97484532     2.17500
O3282       O  0.70021517  0.20494213  0.51362241    -0.51100
O3283       O  0.69413163  0.25943176  0.49833911    -0.74300
O3284       O  0.73893079  0.23189837  0.52357487    -0.81100
O3285       O  0.67891178  0.20279657  0.91239263    -0.82900
O3286       O  0.77766273  0.23945152  0.51839184    -0.78500
O3287       O  0.68584603  0.20104813  0.96357937    -0.90100
O3288       O  0.70311639  0.28558410  0.97535884    -0.76100
O3289       O  0.74495128  0.25669076  0.97300632    -0.85600
O3290       O  0.70552265  0.24641870  0.93302001    -0.85300
O3291       O  0.75920532  0.20946791  0.97100400    -0.72000
O3292       O  0.72200350  0.19961734  0.93109933    -0.84200
Zr3293     Zr  0.77255094  0.23730300  0.88147449     2.26400
Zr3294     Zr  0.78426673  0.24272328  0.96562706     2.06300
Zr3295     Zr  0.71012836  0.22274608  0.88819770     2.10000
Zr3296     Zr  0.73034104  0.27894475  0.93207470     1.78800
O3297       O  0.69336345  0.19229567  0.85653911    -0.93000
O3298       O  0.74784778  0.31068341  0.96074181    -0.40800
O3299       O  0.73485577  0.25546558  0.88647398    -0.77400
O3300       O  0.76967986  0.26455684  0.92326911    -0.96100
O3301       O  0.78597352  0.21587521  0.92418729    -0.89400
O3302       O  0.74774255  0.20500756  0.88383504    -0.92200
C3303       C  0.69077865  0.27323863  0.99373011     1.01500
C3304       C  0.67427349  0.19589564  0.93935141     1.14500
C3305       C  0.75930328  0.23599551  0.53459975     1.05200
O3306       O  0.79804063  0.28022866  0.98360350    -0.94400
O3307       O  0.82073684  0.25048489  0.93515537    -0.90100
O3308       O  0.81080889  0.25112251  0.88501526    -0.83300
C3309       C  0.82569056  0.25300088  0.90634841     1.11900
O3310       O  0.74751520  0.15676241  0.96665991    -0.96400
Zr3311     Zr  0.76013014  0.18397112  0.92783663     1.88900
O3312       O  0.80122287  0.20611450  0.87192148    -0.73000
O3313       O  0.81535002  0.22173632  0.99217104    -0.52300
O3314       O  0.79274183  0.16273158  0.95062625    -0.97000
O3315       O  0.74056008  0.15276151  0.90053644    -0.54200
O3316       O  0.78646111  0.17226451  0.88892041    -0.73500
C3317       C  0.80213673  0.18399374  0.87583485     0.98800
O3318       O  0.78235219  0.26664977  0.84370431    -0.62300
O3319       O  0.67847270  0.24905223  0.87332887    -0.57200
O3320       O  0.75873873  0.22818419  0.83118062    -0.93800
O3321       O  0.71922713  0.22679595  0.83366564    -0.92300
O3322       O  0.69653294  0.29644872  0.90685270    -0.92600
O3323       O  0.74061526  0.31195157  0.90054667    -0.91400
C3324       C  0.73856420  0.22702773  0.81876265     1.17700
H3325       H  0.68931490  0.25082133  0.93567144     0.33600
H3326       H  0.77977303  0.27754983  0.91959042     0.44500
H3327       H  0.74876700  0.19515334  0.86594640     0.38000
H3328       H  0.75882674  0.20083926  0.48453231     0.34500
H3329       H  0.73542730  0.32279008  0.96193452     0.26200
H3330       H  0.82314816  0.21790320  0.48890975     0.32200
H3331       H  0.80178707  0.17473577  0.96155697     0.38100
H3332       H  0.68283589  0.29117836  0.91857748     0.32600
H3333       H  0.67875326  0.24900379  0.85071861     0.31400
H3334       H  0.67878576  0.19924439  0.84824341     0.33100
H3335       H  0.72385227  0.15462642  0.90592899     0.32100
H3336       H  0.75429818  0.30648808  0.88855681     0.36100
H3337       H  0.76732111  0.27121879  0.83411200     0.28800
H3338       H  0.69811473  0.21498869  0.53188382     0.33000
H3339       H  0.73088352  0.16079930  0.97024308     0.35900
H3340       H  0.66402092  0.24072623  0.87857901     0.28500
H3341       H  0.78667908  0.28057569  0.85573102     0.41400
H3342       H  0.79457794  0.28379641  0.49280703     0.31400
H3343       H  0.74928179  0.30482853  0.98188189     0.39100
H3344       H  0.74568005  0.13829997  0.91081722     0.30900
H3345       H  0.80189695  0.20173074  0.49494218     0.31000
H3346       H  0.71261987  0.19362899  0.51930616     0.31200
Zr3347     Zr  0.72482535  0.25054242  0.63132450     2.17500
O3348       O  0.71654883  0.28447045  0.59986245    -0.51100
O3349       O  0.69520232  0.22867246  0.60612560    -0.74300
O3350       O  0.74137248  0.24501269  0.58090915    -0.81100
O3351       O  0.68442469  0.26835450  0.69720450    -0.82900
O3352       O  0.77870599  0.23094489  0.58308480    -0.78500
O3353       O  0.69245931  0.27501005  0.64718879    -0.90100
O3354       O  0.69929401  0.19120331  0.62141911    -0.76100
O3355       O  0.74787576  0.21624100  0.62613721    -0.85600
O3356       O  0.70794049  0.22400705  0.66651393    -0.85300
O3357       O  0.76419314  0.26197463  0.64081630    -0.72000
O3358       O  0.72760934  0.26814799  0.68052702    -0.84200
Zr3359     Zr  0.77402925  0.21881260  0.72199911     2.26400
Zr3360     Zr  0.78729117  0.22669065  0.63803690     2.06300
Zr3361     Zr  0.71255050  0.24056357  0.71620300     2.10000
Zr3362     Zr  0.73091537  0.18964531  0.66020520     1.78800
O3363       O  0.69143329  0.26397093  0.75388430    -0.93000
O3364       O  0.74539093  0.16412521  0.61963232    -0.40800
O3365       O  0.73522518  0.20581295  0.71099095    -0.77400
O3366       O  0.77067473  0.19943725  0.67302691    -0.96100
O3367       O  0.78983259  0.24547718  0.68662261    -0.89400
O3368       O  0.75106382  0.25322250  0.72680160    -0.92200
C3369       C  0.68904123  0.20745510  0.60597749     1.01500
C3370       C  0.68108163  0.27896276  0.67195330     1.14500
C3371       C  0.76030798  0.23761132  0.56830797     1.05200
O3372       O  0.80459440  0.19122263  0.61690615    -0.94400
O3373       O  0.82309608  0.21995816  0.66931893    -0.90100
O3374       O  0.80966947  0.19941859  0.70902389    -0.83300
C3375       C  0.82631201  0.20854020  0.69433564     1.11900
O3376       O  0.76364613  0.31515842  0.66082389    -0.96400
Zr3377     Zr  0.76645883  0.27958277  0.69046360     1.88900
O3378       O  0.80380457  0.24579544  0.74072970    -0.73000
O3379       O  0.81589576  0.25116396  0.61325229    -0.52300
O3380       O  0.80513333  0.29320666  0.67681938    -0.97000
O3381       O  0.74694717  0.31207798  0.71631541    -0.54200
O3382       O  0.78684304  0.28122797  0.73820920    -0.73500
C3383       C  0.80374734  0.26784274  0.74552790     0.98800
O3384       O  0.78131831  0.18670567  0.75708856    -0.62300
O3385       O  0.68172188  0.21212183  0.72139860    -0.57200
O3386       O  0.75834050  0.22113306  0.77292419    -0.93800
O3387       O  0.72032111  0.23268386  0.77026138    -0.92300
O3388       O  0.70020031  0.16659359  0.68296589    -0.92600
O3389       O  0.74208225  0.15214953  0.68165965    -0.91400
C3390       C  0.73868339  0.22650464  0.78520964     1.17700
H3391       H  0.69149408  0.22162382  0.66303292     0.33600
H3392       H  0.77993901  0.18529553  0.67266412     0.44500
H3393       H  0.75157085  0.26002707  0.74698783     0.38000
H3394       H  0.76918834  0.27276166  0.62540972     0.34500
H3395       H  0.74434567  0.17349864  0.60079246     0.26200
H3396       H  0.82613375  0.25660932  0.62999696     0.32200
H3397       H  0.80849879  0.30569980  0.69176090     0.38100
H3398       H  0.69019562  0.16174040  0.66566510     0.32600
H3399       H  0.67943159  0.21066086  0.74371541     0.31400
H3400       H  0.67670792  0.25559535  0.75745848     0.33100
H3401       H  0.75359611  0.31242321  0.73719224     0.32100
H3402       H  0.75551540  0.15541135  0.69522794     0.36100
H3403       H  0.78675334  0.17343574  0.74435524     0.28800
H3404       H  0.70796876  0.27846631  0.58187312     0.33000
H3405       H  0.74714354  0.31604632  0.65410949     0.35900
H3406       H  0.66744154  0.22024469  0.71411467     0.28500
H3407       H  0.79508432  0.19116353  0.76938369     0.41400
H3408       H  0.82166039  0.19308687  0.61937398     0.31400
H3409       H  0.76235539  0.16249500  0.62363669     0.39100
H3410       H  0.73067560  0.30692484  0.71918888     0.30900
H3411       H  0.82581624  0.24022092  0.60130094     0.31000
H3412       H  0.73185516  0.28932673  0.59180506     0.31200
Zr3413     Zr  0.41210818  0.03377417  0.72640234     2.17500
O3414       O  0.43779850  0.01481290  0.68915545    -0.51100
O3415       O  0.44098578  0.01235106  0.75655997    -0.74300
O3416       O  0.44353853  0.05995923  0.71533234    -0.81100
O3417       O  0.35949936  0.99730175  0.69961451    -0.82900
O3418       O  0.43996327  0.09336470  0.74280890    -0.78500
O3419       O  0.39613754  0.00836325  0.68676583    -0.90100
O3420       O  0.43786930  0.03031538  0.80221259    -0.76100
O3421       O  0.41616247  0.05859901  0.76945881    -0.85600
O3422       O  0.38964309  0.01471496  0.76449892    -0.85300
O3423       O  0.39812532  0.07182239  0.71110600    -0.72000
O3424       O  0.37250408  0.03441025  0.71160862    -0.84200
Zr3425     Zr  0.33715783  0.07729505  0.77439381     2.26400
Zr3426     Zr  0.39926199  0.09564334  0.75681820     2.06300
Zr3427     Zr  0.34909543  0.01587700  0.74820474     2.10000
Zr3428     Zr  0.39476133  0.03972697  0.80751442     1.78800
O3429       O  0.32733738  0.98194913  0.73157797    -0.93000
O3430       O  0.41274851  0.06334566  0.84723669    -0.40800
O3431       O  0.35359753  0.04049435  0.79167807    -0.77400
O3432       O  0.37670365  0.07710524  0.79572072    -0.96100
O3433       O  0.36097443  0.09360184  0.73623210    -0.89400
O3434       O  0.33428156  0.05272618  0.73081041    -0.92200
C3435       C  0.44998498  0.01877643  0.78199370     1.01500
C3436       C  0.37681597  0.99794689  0.68097181     1.14500
C3437       C  0.45127154  0.07941310  0.72521997     1.05200
O3438       O  0.41483637  0.11329475  0.80310180    -0.94400
O3439       O  0.37217240  0.12887016  0.76069936    -0.90100
O3440       O  0.34788048  0.11453958  0.79510054    -0.83300
C3441       C  0.35386088  0.13086073  0.77742550     1.11900
O3442       O  0.36661181  0.05030877  0.64437620    -0.96400
Zr3443     Zr  0.35849585  0.06980339  0.69269921     1.88900
O3444       O  0.31735694  0.10679690  0.74034969    -0.73000
O3445       O  0.41066329  0.12948078  0.72747015    -0.52300
O3446       O  0.37706395  0.09660377  0.65772170    -0.97000
O3447       O  0.32353137  0.05909259  0.66409581    -0.54200
O3448       O  0.33503542  0.10417569  0.69406702    -0.73500
C3449       C  0.32138307  0.11435405  0.71295896     0.98800
O3450       O  0.31557151  0.08384005  0.82177243    -0.62300
O3451       O  0.35384625  0.98753961  0.78889806    -0.57200
O3452       O  0.29923665  0.05743759  0.77516293    -0.93800
O3453       O  0.30680798  0.02082630  0.75829680    -0.92300
O3454       O  0.39646672  0.00023763  0.82715889    -0.92600
O3455       O  0.37758428  0.03512099  0.85791221    -0.91400
C3456       C  0.29249030  0.03688467  0.76752836     1.17700
H3457       H  0.39543775  0.99910689  0.76781355     0.33600
H3458       H  0.37702058  0.08633900  0.81420837     0.44500
H3459       H  0.31854343  0.05202452  0.72304459     0.38000
H3460       H  0.40773402  0.07827632  0.69526244     0.34500
H3461       H  0.42079750  0.05205155  0.86072867     0.26200
H3462       H  0.42301899  0.13701371  0.73970846     0.32200
H3463       H  0.38148051  0.11002075  0.67064261     0.38100
H3464       H  0.41281124  0.99800957  0.83407527     0.32600
H3465       H  0.33771332  0.98309038  0.79423683     0.31400
H3466       H  0.31636201  0.98776600  0.71576994     0.33100
H3467       H  0.31037692  0.06761261  0.67390962     0.32100
H3468       H  0.36396221  0.04589930  0.85803851     0.36100
H3469       H  0.31340100  0.06815571  0.83033805     0.28800
H3470       H  0.45338345  0.01397446  0.69895313     0.33000
H3471       H  0.36023286  0.06061667  0.62829801     0.35900
H3472       H  0.36060672  0.97358165  0.77878255     0.28500
H3473       H  0.32682866  0.09116448  0.83595380     0.41400
H3474       H  0.43104154  0.10717076  0.80452232     0.31400
H3475       H  0.42560649  0.07135589  0.83672222     0.39100
H3476       H  0.32093786  0.04255754  0.66894709     0.30900
H3477       H  0.41862396  0.12334647  0.70899076     0.31000
H3478       H  0.43957464  0.02624217  0.67255430     0.31200
Zr3479     Zr  0.07400607  0.04606196  0.71012976     2.17500
O3480       O  0.04433969  0.06685910  0.73963633    -0.51100
O3481       O  0.04759666  0.01828725  0.69035649    -0.74300
O3482       O  0.05083995  0.05854834  0.66646291    -0.81100
O3483       O  0.09588650  0.02276358  0.77424593    -0.82900
O3484       O  0.07059145  0.07626997  0.62839385    -0.78500
O3485       O  0.06412161  0.01676531  0.74694728    -0.90100
O3486       O  0.06925030  0.99611280  0.65762123    -0.76100
O3487       O  0.08885439  0.04373937  0.65992848    -0.85600
O3488       O  0.10153666  0.01440655  0.70917095    -0.85300
O3489       O  0.09126889  0.08283271  0.70047349    -0.72000
O3490       O  0.10341495  0.05241386  0.74855912    -0.84200
Zr3491     Zr  0.16328882  0.05609075  0.68879976     2.26400
Zr3492     Zr  0.10890642  0.07901380  0.65067093     2.06300
Zr3493     Zr  0.13202638  0.02090965  0.74564585     2.10000
Zr3494     Zr  0.11228141  0.01039066  0.65847811     1.78800
O3495       O  0.13769157  0.00777535  0.79797142    -0.93000
O3496       O  0.10264979  0.01143612  0.60427580    -0.40800
O3497       O  0.14486112  0.01863462  0.69375487    -0.77400
O3498       O  0.13446961  0.04585496  0.65020741    -0.96100
O3499       O  0.13666822  0.08807293  0.68929682    -0.89400
O3500       O  0.14796129  0.05804143  0.73899519    -0.92200
C3501       C  0.04943504  0.00146402  0.67139941     1.01500
C3502       C  0.07899090  0.00976383  0.76666353     1.14500
C3503       C  0.05200210  0.06796186  0.63985361     1.05200
O3504       O  0.11411170  0.07662463  0.59555539    -0.94400
O3505       O  0.14228285  0.09997373  0.63176834    -0.90100
O3506       O  0.17509274  0.08268164  0.65009382    -0.83300
C3507       C  0.16456412  0.09790417  0.63382988     1.11900
O3508       O  0.08598155  0.10883789  0.76102133    -0.96400
Zr3509     Zr  0.12004275  0.08922983  0.73909620     1.88900
O3510       O  0.18452663  0.08534917  0.72060694    -0.73000
O3511       O  0.09233234  0.11813911  0.64755457    -0.52300
O3512       O  0.12036290  0.13093923  0.73031700    -0.97000
O3513       O  0.12082029  0.08789890  0.79467644    -0.54200
O3514       O  0.15784329  0.10342356  0.75137254    -0.73500
C3515       C  0.17876290  0.09965499  0.74244888     0.98800
O3516       O  0.19405461  0.03947910  0.65660699    -0.62300
O3517       O  0.13517751  0.97909160  0.73730210    -0.57200
O3518       O  0.19337149  0.03719303  0.71817129    -0.93800
O3519       O  0.17472340  0.02213413  0.75906686    -0.92300
O3520       O  0.11561672  0.96980040  0.67348060    -0.92600
O3521       O  0.14075560  0.98894075  0.62769781    -0.91400
C3522       C  0.19348852  0.02803697  0.74464728     1.17700
H3523       H  0.09479551  0.99949829  0.71338765     0.33600
H3524       H  0.14211512  0.04477083  0.63058362     0.44500
H3525       H  0.15937318  0.06061100  0.75480156     0.38000
H3526       H  0.07947366  0.09500142  0.70068465     0.34500
H3527       H  0.09775085  0.99542009  0.59928294     0.26200
H3528       H  0.09762370  0.12605262  0.66639959     0.32200
H3529       H  0.12641839  0.13263244  0.70930539     0.38100
H3530       H  0.10113130  0.96249793  0.66595742     0.32600
H3531       H  0.15208687  0.97610975  0.73421468     0.31400
H3532       H  0.15033660  0.99590134  0.79696321     0.33100
H3533       H  0.12772042  0.10284975  0.80104708     0.32100
H3534       H  0.15368066  0.99994324  0.62473298     0.36100
H3535       H  0.19475752  0.02280686  0.66199441     0.28800
H3536       H  0.04815170  0.06327645  0.76117003     0.33000
H3537       H  0.07611824  0.09614602  0.76863691     0.35900
H3538       H  0.13171933  0.97201989  0.75729496     0.28500
H3539       H  0.18744854  0.03954932  0.63569341     0.41400
H3540       H  0.11299561  0.05988487  0.59061992     0.31400
H3541       H  0.08803746  0.02078806  0.60315765     0.39100
H3542       H  0.13295982  0.07609207  0.79958491     0.30900
H3543       H  0.10114808  0.12565460  0.63095949     0.31000
H3544       H  0.02985013  0.05816145  0.73557848     0.31200
Zr3545     Zr  0.40316207  0.48124782  0.95532481     2.17500
O3546       O  0.43691470  0.49942715  0.97926315    -0.51100
O3547       O  0.42486317  0.50380114  0.91803933    -0.74300
O3548       O  0.43608574  0.45492629  0.95457738    -0.81100
O3549       O  0.35681211  0.51286505  0.00507274    -0.82900
O3550       O  0.42886577  0.42659201  0.91980209    -0.78500
O3551       O  0.39456125  0.50044578  0.00434507    -0.90100
O3552       O  0.41360299  0.48785770  0.87362062    -0.76100
O3553       O  0.39894471  0.46173993  0.90784582    -0.85600
O3554       O  0.37351403  0.50377227  0.93002977    -0.85300
O3555       O  0.39389926  0.44137252  0.96697069    -0.72000
O3556       O  0.36781365  0.47752639  0.98222813    -0.84200
Zr3557     Zr  0.32354821  0.44134666  0.92415432     2.26400
Zr3558     Zr  0.38693972  0.42316270  0.91839776     2.06300
Zr3559     Zr  0.33756290  0.49926831  0.95862078     2.10000
Zr3560     Zr  0.37061902  0.48410172  0.88198830     1.78800
O3561       O  0.31646026  0.52713354  0.99075345    -0.93000
O3562       O  0.37712855  0.46778225  0.83117719    -0.40800
O3563       O  0.33417095  0.48042377  0.91036314    -0.77400
O3564       O  0.35753714  0.44521223  0.89158817    -0.96100
O3565       O  0.35316128  0.41964030  0.94981642    -0.89400
O3566       O  0.32785560  0.46031427  0.97191456    -0.92200
C3567       C  0.42944218  0.49707437  0.89070572     1.01500
C3568       C  0.37694462  0.51024095  0.01774834     1.14500
C3569       C  0.44261482  0.43837580  0.93675219     1.05200
O3570       O  0.40851957  0.40344473  0.87772504    -0.94400
O3571       O  0.36506769  0.39732610  0.88560080    -0.90100
O3572       O  0.32704757  0.40843340  0.89070842    -0.83300
C3573       C  0.34327273  0.39555647  0.87952846     1.11900
O3574       O  0.37353877  0.46871529  0.54521990    -0.96400
Zr3575     Zr  0.35894151  0.43962373  0.99681293     1.88900
O3576       O  0.30685954  0.41324389  0.96097922    -0.73000
O3577       O  0.39305762  0.38850985  0.94913241    -0.52300
O3578       O  0.37158951  0.40044272  0.01019876    -0.97000
O3579       O  0.32571620  0.46933282  0.53953783    -0.54200
O3580       O  0.32441502  0.41873785  0.00672784    -0.73500
C3581       C  0.30919281  0.40913064  0.98988491     0.98800
O3582       O  0.29119787  0.43855141  0.88799312    -0.62300
O3583       O  0.33396868  0.53388226  0.92719070    -0.57200
O3584       O  0.28642073  0.46095564  0.93155115    -0.93800
O3585       O  0.29466458  0.49345971  0.95874031    -0.92300
O3586       O  0.37262028  0.52549573  0.87131742    -0.92600
O3587       O  0.34216269  0.49519425  0.84314777    -0.91400
C3588       C  0.28015673  0.47902436  0.94677371     1.17700
H3589       H  0.37811040  0.51978491  0.92839663     0.33600
H3590       H  0.35460469  0.43869526  0.87161172     0.44500
H3591       H  0.31389864  0.45971993  0.98421198     0.38000
H3592       H  0.40603476  0.43338714  0.97828279     0.34500
H3593       H  0.38408307  0.48057151  0.81937955     0.26200
H3594       H  0.39922938  0.37673883  0.93455233     0.32200
H3595       H  0.37190206  0.40790166  0.52075187     0.38100
H3596       H  0.38189531  0.52639616  0.85230238     0.32600
H3597       H  0.31705061  0.53774507  0.92734616     0.31400
H3598       H  0.30963285  0.51774373  0.00730741     0.33100
H3599       H  0.31147121  0.45977469  0.53912025     0.32100
H3600       H  0.32875059  0.48486433  0.84662632     0.36100
H3601       H  0.29837575  0.43924400  0.86747034     0.28800
H3602       H  0.43242496  0.51585877  0.98296175     0.33000
H3603       H  0.39023136  0.46712952  0.53962264     0.35900
H3604       H  0.34119608  0.54633693  0.93952576     0.28500
H3605       H  0.28512840  0.42258669  0.88975136     0.41400
H3606       H  0.41214455  0.41584130  0.86296997     0.31400
H3607       H  0.39011459  0.45645137  0.83389402     0.39100
H3608       H  0.32082156  0.48429183  0.53033895     0.30900
H3609       H  0.40651924  0.39213948  0.96245204     0.31000
H3610       H  0.40867996  0.50290847  0.51410066     0.31200
Zr3611     Zr  0.06167694  0.44414897  0.96285032     2.17500
O3612       O  0.02900804  0.44120847  0.92736381    -0.51100
O3613       O  0.03364444  0.47326659  0.98084996    -0.74300
O3614       O  0.03874610  0.41472701  0.98942129    -0.81100
O3615       O  0.10200984  0.47138097  0.90563780    -0.82900
O3616       O  0.05726391  0.38167664  0.99906557    -0.78500
O3617       O  0.06762218  0.45222755  0.90873774    -0.90100
O3618       O  0.04381915  0.48087579  0.54207652    -0.76100
O3619       O  0.06719643  0.43621706  0.01561855    -0.85600
O3620       O  0.08279526  0.47747743  0.97992183    -0.85300
O3621       O  0.08299662  0.40793224  0.96503709    -0.72000
O3622       O  0.09914296  0.44432576  0.94540013    -0.84200
Zr3623     Zr  0.14817221  0.43187890  0.00699660     2.26400
Zr3624     Zr  0.09100064  0.40131100  0.01913695     2.06300
Zr3625     Zr  0.12064936  0.47639271  0.95512244     2.10000
Zr3626     Zr  0.08596022  0.46602642  0.54515052     1.78800
O3627       O  0.13035278  0.50410486  0.91531617    -0.93000
O3628       O  0.06766068  0.45715857  0.59386514    -0.40800
O3629       O  0.12614974  0.46857682  0.00789612    -0.77400
O3630       O  0.10899870  0.42964150  0.54653382    -0.96100
O3631       O  0.12516327  0.40116363  0.98785396    -0.89400
O3632       O  0.14213709  0.44038519  0.95448250    -0.92200
C3633       C  0.03036144  0.48472078  0.00575841     1.01500
C3634       C  0.08391906  0.46204810  0.89348360     1.14500
C3635       C  0.04082703  0.39275372  0.98577074     1.05200
O3636       O  0.07507750  0.40293095  0.57916546    -0.94400
O3637       O  0.11988575  0.37191156  0.52857037    -0.90100
O3638       O  0.14868869  0.39356425  0.54739284    -0.83300
C3639       C  0.14088143  0.37396799  0.53857131     1.11900
O3640       O  0.09327785  0.40354599  0.89142573    -0.96400
Zr3641     Zr  0.11785531  0.41007934  0.93603964     1.88900
O3642       O  0.17314552  0.40078907  0.98154282    -0.73000
O3643       O  0.08338358  0.36502137  0.04573995    -0.52300
O3644       O  0.11074340  0.36855536  0.93020362    -0.97000
O3645       O  0.13528641  0.42091274  0.88745948    -0.54200
O3646       O  0.15423436  0.38992433  0.93828608    -0.73500
C3647       C  0.17092806  0.38784151  0.95729469     0.98800
O3648       O  0.17042710  0.43742817  0.55841764    -0.62300
O3649       O  0.11263160  0.51547991  0.97475531    -0.57200
O3650       O  0.17954427  0.45669923  0.99112133    -0.93800
O3651       O  0.16384705  0.48119930  0.95593417    -0.92300
O3652       O  0.09333048  0.50752666  0.54798583    -0.92600
O3653       O  0.10587709  0.47688949  0.59223107    -0.91400
C3654       C  0.18136951  0.47263122  0.97101524     1.17700
H3655       H  0.07437074  0.49183914  0.97623890     0.33600
H3656       H  0.11301259  0.42627070  0.56751162     0.44500
H3657       H  0.15646831  0.44046539  0.94288921     0.38000
H3658       H  0.07528518  0.39577256  0.95410691     0.34500
H3659       H  0.05963509  0.47177846  0.60016261     0.26200
H3660       H  0.06684372  0.36583608  0.05227926     0.32200
H3661       H  0.11943845  0.36374056  0.91161154     0.38100
H3662       H  0.07764444  0.51494454  0.54846934     0.32600
H3663       H  0.12740345  0.52397078  0.97212513     0.31400
H3664       H  0.14359488  0.49692348  0.90402170     0.33100
H3665       H  0.14527785  0.40742175  0.88161230     0.32100
H3666       H  0.12266851  0.47654870  0.58687006     0.36100
H3667       H  0.16129915  0.43392933  0.57697614     0.28800
H3668       H  0.01502552  0.43933464  0.94032382     0.33000
H3669       H  0.07705732  0.40516343  0.89900695     0.35900
H3670       H  0.10171406  0.52268241  0.95988647     0.28500
H3671       H  0.18298366  0.42544003  0.55787701     0.41400
H3672       H  0.05777810  0.40287355  0.57886151     0.31400
H3673       H  0.05478859  0.44657910  0.58855792     0.39100
H3674       H  0.14644768  0.43338491  0.89223809     0.30900
H3675       H  0.08390097  0.35275072  0.02978378     0.31000
H3676       H  0.03127253  0.42608124  0.91688741     0.31200
Zr3677     Zr  0.23625675  0.22910355  0.77579770     2.17500
O3678       O  0.20201477  0.22104438  0.74446341    -0.51100
O3679       O  0.26420124  0.20075719  0.75521320    -0.74300
O3680       O  0.24148154  0.24555749  0.72650498    -0.81100
O3681       O  0.22599852  0.18053568  0.82918649    -0.82900
O3682       O  0.25639687  0.28178935  0.72931622    -0.78500
O3683       O  0.22044139  0.19151074  0.77994936    -0.90100
O3684       O  0.29376053  0.22387534  0.76354146    -0.76100
O3685       O  0.27207733  0.24961529  0.77622273    -0.85600
O3686       O  0.25933017  0.21214939  0.81573786    -0.85300
O3687       O  0.22448750  0.26881118  0.78382679    -0.72000
O3688       O  0.21263236  0.23409842  0.82079474    -0.84200
Zr3689     Zr  0.26202401  0.27746138  0.86986036     2.26400
Zr3690     Zr  0.26065733  0.28901775  0.78423448     2.06300
Zr3691     Zr  0.23582560  0.21623312  0.86000759     2.10000
Zr3692     Zr  0.29454464  0.23324876  0.81703698     1.78800
O3693       O  0.19785397  0.20431738  0.87871652    -0.93000
O3694       O  0.33523381  0.23013839  0.80097425    -0.40800
O3695       O  0.27220484  0.23710010  0.86290646    -0.77400
O3696       O  0.28463256  0.27281723  0.82415373    -0.96100
O3697       O  0.23927328  0.29526443  0.83074869    -0.89400
O3698       O  0.22628854  0.25660396  0.86976400    -0.92200
C3699       C  0.28619270  0.20401140  0.75631016     1.01500
C3700       C  0.22118953  0.17613529  0.80070622     1.14500
C3701       C  0.24892792  0.26413210  0.71431907     1.05200
O3702       O  0.29401663  0.30201036  0.75482671    -0.94400
O3703       O  0.28244175  0.31982317  0.80778253    -0.90100
O3704       O  0.28509034  0.31117178  0.85843641    -0.83300
C3705       C  0.29019018  0.32322021  0.83484995     1.11900
O3706       O  0.16916551  0.26866939  0.79973530    -0.96400
Zr3707     Zr  0.20370925  0.27462896  0.83123423     1.88900
O3708       O  0.23787810  0.30656889  0.89533680    -0.73000
O3709       O  0.23583631  0.32166172  0.76907666    -0.52300
O3710       O  0.18823408  0.31055137  0.80959085    -0.97000
O3711       O  0.17046258  0.26172142  0.86106863    -0.54200
O3712       O  0.20187936  0.30263332  0.87441766    -0.73500
C3713       C  0.21615012  0.31198977  0.89368468     0.98800
O3714       O  0.29509656  0.28575118  0.90305900    -0.62300
O3715       O  0.25550162  0.18410190  0.88581959    -0.57200
O3716       O  0.25720634  0.25892982  0.91862801    -0.93800
O3717       O  0.24040523  0.22336628  0.91515120    -0.92300
O3718       O  0.30414807  0.19463290  0.83612021    -0.92600
O3719       O  0.32575149  0.25044582  0.84723323    -0.91400
C3720       C  0.24884659  0.24049633  0.93050657     1.17700
H3721       H  0.26308552  0.19602194  0.81214045     0.33600
H3722       H  0.29941786  0.28060633  0.82500263     0.44500
H3723       H  0.21818572  0.25843182  0.88895641     0.38000
H3724       H  0.21491247  0.27404527  0.76697389     0.34500
H3725       H  0.33837526  0.21330758  0.79832970     0.26200
H3726       H  0.24330990  0.33548949  0.77815441     0.32200
H3727       H  0.19153269  0.30937700  0.78744696     0.38100
H3728       H  0.31866142  0.19670877  0.84809745     0.32600
H3729       H  0.24535485  0.17052890  0.88246953     0.31400
H3730       H  0.18672763  0.21608214  0.87069989     0.33100
H3731       H  0.16034103  0.27571822  0.86322916     0.32100
H3732       H  0.32424115  0.24330508  0.86763720     0.36100
H3733       H  0.28827946  0.29449520  0.92049643     0.28800
H3734       H  0.20804448  0.21663499  0.72401777     0.33000
H3735       H  0.16819658  0.25160802  0.79726642     0.35900
H3736       H  0.26953774  0.18075619  0.87331009     0.28500
H3737       H  0.30015719  0.27062230  0.91159014     0.41400
H3738       H  0.30430392  0.28808883  0.75315462     0.31400
H3739       H  0.33565962  0.23657722  0.78008047     0.39100
H3740       H  0.17664469  0.25903087  0.88187566     0.30900
H3741       H  0.23835863  0.32324082  0.74682950     0.31000
H3742       H  0.19425575  0.23634006  0.74156278     0.31200
Zr3743     Zr  0.25769014  0.27326631  0.52608795     2.17500
O3744       O  0.29428335  0.28335728  0.99210494    -0.51100
O3745       O  0.22891043  0.30261489  0.50988953    -0.74300
O3746       O  0.25551529  0.25971331  0.97622087    -0.81100
O3747       O  0.27277533  0.32097275  0.57946639    -0.82900
O3748       O  0.24145693  0.22315036  0.97954422    -0.78500
O3749       O  0.27570718  0.30973984  0.52981368    -0.90100
O3750       O  0.19929837  0.27960840  0.51793992    -0.76100
O3751       O  0.22266349  0.25174387  0.52779234    -0.85600
O3752       O  0.23568985  0.28972001  0.56753791    -0.85300
O3753       O  0.27090361  0.23396676  0.53362189    -0.72000
O3754       O  0.28319544  0.26912896  0.56944534    -0.84200
Zr3755     Zr  0.23706898  0.22502487  0.62115239     2.26400
Zr3756     Zr  0.23528478  0.21274636  0.53513813     2.06300
Zr3757     Zr  0.26104466  0.28650646  0.61017092     2.10000
Zr3758     Zr  0.20110442  0.26715181  0.56994930     1.78800
O3759       O  0.29826400  0.29910772  0.63102742    -0.93000
O3760       O  0.16414040  0.25166120  0.55205516    -0.40800
O3761       O  0.22550401  0.26461467  0.61415192    -0.77400
O3762       O  0.21247918  0.22783199  0.57721446    -0.96100
O3763       O  0.25865597  0.20788685  0.58031508    -0.89400
O3764       O  0.27215013  0.24669094  0.61974040    -0.92200
C3765       C  0.20689743  0.29964241  0.51220891     1.01500
C3766       C  0.27698384  0.32495742  0.55088844     1.14500
C3767       C  0.24858326  0.24069973  0.96421798     1.05200
O3768       O  0.19974239  0.19982038  0.51002957    -0.94400
O3769       O  0.21878883  0.18002598  0.56155291    -0.90100
O3770       O  0.22189062  0.18671834  0.61283263    -0.83300
C3771       C  0.21614150  0.17437728  0.58961029     1.11900
O3772       O  0.32780892  0.23567907  0.54788956    -0.96400
Zr3773     Zr  0.29373420  0.22912341  0.57980659     1.88900
O3774       O  0.26328500  0.19913688  0.64780693    -0.73000
O3775       O  0.25965924  0.18159487  0.51403000    -0.52300
O3776       O  0.31227262  0.19480537  0.55727417    -0.97000
O3777       O  0.32430363  0.24567589  0.61168679    -0.54200
O3778       O  0.29735245  0.20030045  0.62172186    -0.73500
C3779       C  0.28439110  0.19239907  0.64343804     0.98800
O3780       O  0.20293671  0.21852269  0.65312418    -0.62300
O3781       O  0.23948163  0.31885420  0.63338905    -0.57200
O3782       O  0.24171988  0.24438740  0.66938718    -0.93800
O3783       O  0.25659472  0.28071064  0.66524164    -0.92300
O3784       O  0.18629290  0.30585905  0.58274088    -0.92600
O3785       O  0.16985873  0.26201820  0.60685531    -0.91400
C3786       C  0.24902124  0.26351452  0.68082587     1.17700
H3787       H  0.23174024  0.30592135  0.56494431     0.33600
H3788       H  0.19850486  0.21887496  0.57991667     0.44500
H3789       H  0.28084689  0.24533764  0.63857920     0.38000
H3790       H  0.28004532  0.22888299  0.51624213     0.34500
H3791       H  0.15618581  0.26485413  0.54183120     0.26200
H3792       H  0.25689209  0.16811522  0.52738116     0.32200
H3793       H  0.30110547  0.18945700  0.54155222     0.38100
H3794       H  0.16925221  0.30511723  0.57905759     0.32600
H3795       H  0.24475124  0.33294137  0.62271046     0.31400
H3796       H  0.30230657  0.28745020  0.64676018     0.33100
H3797       H  0.32805251  0.26065461  0.60198211     0.32100
H3798       H  0.17701096  0.26580402  0.62684230     0.36100
H3799       H  0.19878465  0.23391015  0.66192731     0.28800
H3800       H  0.28748181  0.29109874  0.97401204     0.33000
H3801       H  0.32152981  0.24340150  0.52943067     0.35900
H3802       H  0.22318038  0.31679645  0.62642608     0.28500
H3803       H  0.19010978  0.21535107  0.63855063     0.41400
H3804       H  0.20462769  0.18597566  0.49799751     0.31400
H3805       H  0.16851791  0.24088442  0.53523748     0.39100
H3806       H  0.33824214  0.23567675  0.60806686     0.30900
H3807       H  0.25217985  0.17740141  0.49438746     0.31000
H3808       H  0.29958236  0.26787307  0.98470666     0.31200
C3809       C  0.21978562  0.35029400  0.92301393     0.23800
C3810       C  0.20692046  0.33020076  0.91537002    -0.24300
C3811       C  0.18453529  0.32800229  0.92785707     0.18700
C3812       C  0.17450954  0.34598350  0.94527327     0.23700
C3813       C  0.18617718  0.36713244  0.95034932    -0.24300
C3814       C  0.20929915  0.36885214  0.93973042     0.18600
F3815       F  0.22094142  0.38908286  0.94305770    -0.14200
F3816       F  0.24186465  0.35273557  0.91235287    -0.16600
F3817       F  0.15215562  0.34356945  0.95489965    -0.16600
F3818       F  0.17189672  0.30862132  0.92239148    -0.14200
C3819       C  0.18797066  0.36321314  0.03270299     0.23800
C3820       C  0.15759927  0.35409830  0.53462457    -0.24300
C3821       C  0.15014722  0.33306638  0.52136161     0.18700
C3822       C  0.16638192  0.31617615  0.51186631     0.23700
C3823       C  0.19050230  0.31957502  0.51578228    -0.24300
C3824       C  0.20382204  0.34573274  0.02367043     0.18600
F3825       F  0.22701262  0.34998854  0.02568721    -0.14200
F3826       F  0.19660832  0.38392314  0.04203788    -0.16600
F3827       F  0.15842778  0.29640374  0.49862396    -0.16600
F3828       F  0.12710816  0.32882627  0.51697607    -0.14200
C3829       C  0.34178963  0.35416149  0.86610719     0.23800
C3830       C  0.33547645  0.37710596  0.85934337    -0.24300
C3831       C  0.31707501  0.38175941  0.83883196     0.18700
C3832       C  0.30309704  0.36376231  0.82853813     0.23700
C3833       C  0.30734512  0.34126033  0.83922302    -0.24300
C3834       C  0.32757905  0.33624039  0.85626396     0.18600
F3835       F  0.33273484  0.31413684  0.86487916    -0.14200
F3836       F  0.35988213  0.34935692  0.88524085    -0.16600
F3837       F  0.28422494  0.36861742  0.81074461    -0.16600
F3838       F  0.31137563  0.40393627  0.83115604    -0.14200
C3839       C  0.22175834  0.48403100  0.98763609     0.23800
C3840       C  0.20569884  0.47985607  0.96382536    -0.24300
C3841       C  0.21427394  0.47797576  0.93379089     0.18700
C3842       C  0.23844249  0.47863156  0.92801751     0.23700
C3843       C  0.25453978  0.48229745  0.95195462    -0.24300
C3844       C  0.24582176  0.48565543  0.98170587     0.18600
F3845       F  0.26078211  0.48839955  0.00550769    -0.14200
F3846       F  0.19229779  0.48493920  0.42259384    -0.16600
F3847       F  0.24620536  0.47462576  0.89914700    -0.16600
F3848       F  0.19944179  0.47344852  0.91034132    -0.14200
C3849       C  0.28625831  0.37218062  0.98902323     0.23800
C3850       C  0.29528939  0.39096676  0.00550792    -0.24300
C3851       C  0.29492283  0.38997980  0.03793933     0.18700
C3852       C  0.29845618  0.36275912  0.55572967     0.23700
C3853       C  0.28315853  0.34839159  0.53971492    -0.24300
C3854       C  0.27554766  0.35528692  0.51030172     0.18600
F3855       F  0.26015288  0.34223393  0.49423503    -0.14200
F3856       F  0.28564612  0.37242859  0.95801847    -0.16600
F3857       F  0.30625698  0.35660751  0.58387063    -0.16600
F3858       F  0.30225254  0.40821800  0.05510600    -0.14200
C3859       C  0.22228063  0.14622214  0.75859421     0.23800
C3860       C  0.21638524  0.15217510  0.78921494    -0.24300
C3861       C  0.20311717  0.13651040  0.80597538     0.18700
C3862       C  0.19309335  0.11732336  0.79122644     0.23700
C3863       C  0.19638526  0.11333597  0.75952927    -0.24300
C3864       C  0.21250442  0.12689490  0.74401703     0.18600
F3865       F  0.21679878  0.12305736  0.71390432    -0.14200
F3866       F  0.23617672  0.16017340  0.74187438    -0.16600
F3867       F  0.17847453  0.10368221  0.80736358    -0.16600
F3868       F  0.19790889  0.14095603  0.83568500    -0.14200
C3869       C  0.18214097  0.14866061  0.58511899     0.23800
C3870       C  0.20474510  0.15254683  0.59610865    -0.24300
C3871       C  0.21508155  0.13701630  0.61665505     0.18700
C3872       C  0.20255730  0.11823422  0.62734445     0.23700
C3873       C  0.17915502  0.11503377  0.61807809    -0.24300
C3874       C  0.16934826  0.13005493  0.59606316     0.18600
F3875       F  0.14706810  0.12743911  0.58607446    -0.14200
F3876       F  0.17178601  0.16396196  0.56569976    -0.16600
F3877       F  0.21299536  0.10417044  0.64823713    -0.16600
F3878       F  0.23704419  0.14060573  0.62729738    -0.14200
C3879       C  0.29673842  0.16448615  0.77427152     0.23800
C3880       C  0.30268504  0.18417480  0.75745740    -0.24300
C3881       C  0.32591320  0.18668782  0.74775930     0.18700
C3882       C  0.34298906  0.16997526  0.75523243     0.23700
C3883       C  0.33713996  0.15052703  0.77288044    -0.24300
C3884       C  0.31376402  0.14828760  0.78262227     0.18600
F3885       F  0.30692086  0.13000736  0.79968057    -0.14200
F3886       F  0.27456043  0.16125971  0.78403177    -0.16600
F3887       F  0.36518920  0.17295325  0.74532008    -0.16600
F3888       F  0.33209090  0.20550312  0.73124881    -0.14200
C3889       C  0.25756341  0.01222107  0.75162708     0.23800
C3890       C  0.26651750  0.03176634  0.76744566    -0.24300
C3891       C  0.25005487  0.04733744  0.78078534     0.18700
C3892       C  0.22581916  0.04441980  0.77648468     0.23700
C3893       C  0.21717915  0.02590034  0.75881867    -0.24300
C3894       C  0.23333459  0.00952759  0.74720056     0.18600
F3895       F  0.22568287  0.99167897  0.72958620    -0.14200
F3896       F  0.27219651  0.99638828  0.73843026    -0.16600
F3897       F  0.21080833  0.06085359  0.78756216    -0.16600
F3898       F  0.25732639  0.06612904  0.79688065    -0.14200
C3899       C  0.28762800  0.14189650  0.70072791     0.23800
C3900       C  0.31161620  0.13676543  0.70118466    -0.24300
C3901       C  0.32671354  0.15136017  0.68475372     0.18700
C3902       C  0.31805973  0.16963306  0.66683945     0.23700
C3903       C  0.29390971  0.17406428  0.66469300    -0.24300
C3904       C  0.27883251  0.16030714  0.68272622     0.18600
F3905       F  0.25535521  0.16375810  0.68174459    -0.14200
F3906       F  0.27257174  0.12819451  0.71601446    -0.16600
F3907       F  0.33347781  0.18269717  0.65116071    -0.16600
F3908       F  0.35016171  0.14741914  0.68532471    -0.14200
C3909       C  0.00218036  0.38890437  0.91836775     0.23800
C3910       C  0.01762815  0.37794490  0.89752478    -0.24300
C3911       C  0.03710150  0.36574014  0.90881462     0.18700
C3912       C  0.04256551  0.36704346  0.93986104     0.23700
C3913       C  0.02940397  0.38183838  0.95938369    -0.24300
C3914       C  0.00825563  0.39118213  0.94895339     0.18600
F3915       F  0.99433759  0.40398550  0.96789372    -0.14200
F3916       F  0.98120328  0.39762389  0.90917807    -0.16600
F3917       F  0.06205315  0.35577808  0.94999964    -0.16600
F3918       F  0.05125845  0.35334235  0.88971745    -0.14200
C3919       C  0.88389800  0.28318446  0.89821372     0.23800
C3920       C  0.88832806  0.28051641  0.86627631    -0.24300
C3921       C  0.87427792  0.26507555  0.84981885     0.18700
C3922       C  0.85542832  0.25423103  0.86400740     0.23700
C3923       C  0.84949280  0.25904135  0.89498221    -0.24300
C3924       C  0.86473637  0.27262155  0.91221594     0.18600
F3925       F  0.86017483  0.27718639  0.94209072    -0.14200
F3926       F  0.89711777  0.29730779  0.91594145    -0.16600
F3927       F  0.84216274  0.23983505  0.84667573    -0.16600
F3928       F  0.87785723  0.26135083  0.81952175    -0.14200
C3929       C  0.82372663  0.29858951  0.77533090     0.23800
C3930       C  0.82515456  0.27952077  0.75521441    -0.24300
C3931       C  0.84511199  0.27651865  0.73704603     0.18700
C3932       C  0.86242936  0.29331159  0.73695599     0.23700
C3933       C  0.86080113  0.31292525  0.75634848    -0.24300
C3934       C  0.84149333  0.31501330  0.77619196     0.18600
F3935       F  0.83951742  0.33310125  0.79611374    -0.14200
F3936       F  0.80453195  0.30185951  0.79310653    -0.16600
F3937       F  0.88007009  0.29093601  0.71646263    -0.16600
F3938       F  0.84668312  0.25861836  0.71681345    -0.14200
C3939       C  0.00748318  0.09780233  0.65346157     0.23800
C3940       C  0.99955318  0.07862537  0.67055852    -0.24300
C3941       C  0.00010326  0.05653297  0.65639059     0.18700
C3942       C  0.01376312  0.05352791  0.63011855     0.23700
C3943       C  0.02978196  0.07103980  0.62352848    -0.24300
C3944       C  0.02159384  0.09372020  0.62796774     0.18600
F3945       F  0.03322780  0.11170892  0.61549847    -0.14200
F3946       F  0.00368617  0.12004106  0.66277559    -0.16600
F3947       F  0.01729465  0.03193998  0.61855653    -0.16600
F3948       F  0.99015728  0.03777657  0.66942456    -0.14200
C3949       C  0.84488354  0.17907332  0.87883909     0.23800
C3950       C  0.82339036  0.17105479  0.86799663    -0.24300
C3951       C  0.82191172  0.14854065  0.85568754     0.18700
C3952       C  0.84193379  0.13472301  0.85257368     0.23700
C3953       C  0.86379815  0.14327837  0.86169976    -0.24300
C3954       C  0.86493816  0.16532650  0.87574511     0.18600
F3955       F  0.88551231  0.17364728  0.88638088    -0.14200
F3956       F  0.84624120  0.19970888  0.89389638    -0.16600
F3957       F  0.83997197  0.11344425  0.83933317    -0.16600
F3958       F  0.80102407  0.13996206  0.84657730    -0.14200
C3959       C  0.98765165  0.21745178  0.81374653     0.23800
C3960       C  0.98441941  0.20554929  0.78582663    -0.24300
C3961       C  0.98379905  0.21846587  0.75869571     0.18700
C3962       C  0.98413154  0.24287222  0.75978723     0.23700
C3963       C  0.98543577  0.25480431  0.78798009    -0.24300
C3964       C  0.98836710  0.24180909  0.81477959     0.18600
F3965       F  0.98948015  0.25269919  0.84233044    -0.14200
F3966       F  0.98862209  0.20549397  0.84035096    -0.16600
F3967       F  0.98174164  0.25493551  0.73339844    -0.16600
F3968       F  0.98051404  0.20762903  0.73142398    -0.14200
C3969       C  0.87173253  0.19730027  0.75519694     0.23800
C3970       C  0.89031031  0.18846438  0.73776753    -0.24300
C3971       C  0.88986994  0.19192379  0.70570020     0.18700
C3972       C  0.86967540  0.20050627  0.69117319     0.23700
C3973       C  0.84973222  0.20570077  0.70848951    -0.24300
C3974       C  0.85152915  0.20546220  0.74072994     0.18600
F3975       F  0.83300954  0.21144290  0.75849170    -0.14200
F3976       F  0.87176166  0.19521044  0.78606870    -0.16600
F3977       F  0.86885612  0.20132027  0.66020684    -0.16600
F3978       F  0.90811405  0.18467896  0.68811215    -0.14200
C3979       C  0.50465704  0.07624011  0.67761865     0.23800
C3980       C  0.50538949  0.09945138  0.66757809    -0.24300
C3981       C  0.49341759  0.11671759  0.68461274     0.18700
C3982       C  0.47789189  0.11038401  0.70748275     0.23700
C3983       C  0.47381993  0.08676678  0.71294050    -0.24300
C3984       C  0.48896814  0.06999477  0.70016460     0.18600
F3985       F  0.48707012  0.04718814  0.70738430    -0.14200
F3986       F  0.51743777  0.05909439  0.66391393    -0.16600
F3987       F  0.46525343  0.12726511  0.72189041    -0.16600
F3988       F  0.49536917  0.13958307  0.67786772    -0.14200
C3989       C  0.66631226  0.18495433  0.56649714     0.23800
C3990       C  0.66746655  0.20262804  0.58864146    -0.24300
C3991       C  0.64776400  0.21707459  0.59356696     0.18700
C3992       C  0.62692242  0.21313541  0.57789593     0.23700
C3993       C  0.62547429  0.19511628  0.55628264    -0.24300
C3994       C  0.64561854  0.18163083  0.54982066     0.18600
F3995       F  0.64479202  0.16413702  0.52898422    -0.14200
F3996       F  0.68507509  0.17084935  0.56121376    -0.16600
F3997       F  0.60766250  0.22603882  0.58517054    -0.16600
F3998       F  0.64827388  0.23416331  0.61510332    -0.14200
C3999       C  0.64156607  0.14270006  0.96052670     0.23800
C4000       C  0.62089873  0.14551191  0.94332375    -0.24300
C4001       C  0.60956771  0.18131525  0.43764588     0.18700
C4002       C  0.63568842  0.18138521  0.92287458     0.23700
C4003       C  0.65544719  0.17931672  0.94174897    -0.24300
C4004       C  0.65855211  0.15963008  0.95998644     0.18600
F4005       F  0.67819399  0.15659787  0.97703458    -0.14200
F4006       F  0.64485665  0.12430743  0.97938645    -0.16600
F4007       F  0.62255684  0.22018008  0.43349696    -0.16600
F4008       F  0.58726312  0.18956052  0.43676826    -0.14200
C4009       C  0.49574194  0.44401179  0.49425240     0.23800
C4010       C  0.49807984  0.41995288  0.49966667    -0.24300
C4011       C  0.49751328  0.40243391  0.93934602     0.18700
C4012       C  0.47539630  0.40970312  0.92976765     0.23700
C4013       C  0.46756075  0.43233057  0.93689329    -0.24300
C4014       C  0.48367630  0.44875089  0.94744746     0.18600
F4015       F  0.47749298  0.47143503  0.95140668    -0.14200
F4016       F  0.50879180  0.45975903  0.50964222    -0.16600
F4017       F  0.46092729  0.39392136  0.91685709    -0.16600
F4018       F  0.49018229  0.38113579  0.48166216    -0.14200
C4019       C  0.64489765  0.29860235  0.69146398     0.23800
C4020       C  0.66446405  0.29843685  0.67209758    -0.24300
C4021       C  0.66931441  0.31807652  0.65446835     0.18700
C4022       C  0.65436296  0.33718917  0.65512881     0.23700
C4023       C  0.63428427  0.33704530  0.67351663    -0.24300
C4024       C  0.62979689  0.31777904  0.69199600     0.18600
F4025       F  0.61061098  0.31741168  0.71017513    -0.14200
F4026       F  0.64012563  0.28008503  0.70935029    -0.16600
F4027       F  0.65901761  0.35531642  0.63651174    -0.16600
F4028       F  0.68884448  0.31905097  0.63697297    -0.14200
C4029       C  0.53563513  0.26184890  0.59910508     0.23800
C4030       C  0.53582712  0.27832665  0.57533214    -0.24300
C4031       C  0.53343073  0.26997269  0.54515134     0.18700
C4032       C  0.53221347  0.24588699  0.53888852     0.23700
C4033       C  0.53258963  0.22933008  0.56268998    -0.24300
C4034       C  0.53363280  0.23786909  0.59294507     0.18600
F4035       F  0.53395522  0.22291598  0.61677600    -0.14200
F4036       F  0.53770251  0.26893043  0.62860586    -0.16600
F4037       F  0.53100060  0.23879466  0.50930573    -0.16600
F4038       F  0.53356698  0.28503761  0.52143469    -0.14200
C4039       C  0.64097766  0.29245682  0.54968172     0.23800
C4040       C  0.64458368  0.31513354  0.56016390    -0.24300
C4041       C  0.66569715  0.32611874  0.55263411     0.18700
C4042       C  0.68214167  0.31527320  0.53330252     0.23700
C4043       C  0.67783901  0.29312679  0.52094329    -0.24300
C4044       C  0.65731287  0.28158528  0.53023387     0.18600
F4045       F  0.64574594  0.25537164  0.00952477    -0.14200
F4046       F  0.62064499  0.28161347  0.55593691    -0.16600
F4047       F  0.70204317  0.32663813  0.52635871    -0.16600
F4048       F  0.66973287  0.34807553  0.56269267    -0.14200
C4049       C  0.97635982  0.52124784  0.49843318     0.23800
C4050       C  0.95891268  0.51591010  0.00284814    -0.24300
C4051       C  0.96808183  0.50730281  0.03081980     0.18700
C4052       C  0.99163306  0.49844460  0.03308044     0.23700
C4053       C  0.00696804  0.49817261  0.00753878    -0.24300
C4054       C  0.99927854  0.51248167  0.50184681     0.18600
F4055       F  0.01583394  0.51955625  0.48191173    -0.14200
F4056       F  0.97236103  0.53655878  0.47555377    -0.16600
F4057       F  0.99897448  0.48918607  0.05989056    -0.16600
F4058       F  0.95406067  0.50656844  0.05573259    -0.14200
C4059       C  0.87474802  0.45863568  0.88312479     0.23800
C4060       C  0.88469660  0.48081243  0.88283703    -0.24300
C4061       C  0.90145243  0.48616892  0.86051845     0.18700
C4062       C  0.90936826  0.46912022  0.84033976     0.23700
C4063       C  0.90044665  0.44670533  0.84203342    -0.24300
C4064       C  0.88258719  0.44165954  0.86270858     0.18600
F4065       F  0.87426838  0.41975185  0.86495500    -0.14200
F4066       F  0.85881376  0.45282278  0.90459035    -0.16600
F4067       F  0.92628270  0.47421768  0.81981002    -0.16600
F4068       F  0.91059136  0.50772188  0.85863192    -0.14200
C4069       C  0.78299698  0.66758036  0.89579429     0.23800
C4070       C  0.75882500  0.66863763  0.89055348    -0.24300
C4071       C  0.74473686  0.65133947  0.90390388     0.18700
C4072       C  0.75505270  0.63256090  0.92005658     0.23700
C4073       C  0.77948163  0.63091978  0.92304652    -0.24300
C4074       C  0.79310287  0.64895945  0.91126380     0.18600
F4075       F  0.81674283  0.64815775  0.91385738    -0.14200
F4076       F  0.79717873  0.68451915  0.88544472    -0.16600
F4077       F  0.74141329  0.61532944  0.93074643    -0.16600
F4078       F  0.72122979  0.65179995  0.89982315    -0.14200
C4079       C  0.81535660  0.67035934  0.48746583     0.23800
C4080       C  0.80785260  0.64954841  0.50071052    -0.24300
C4081       C  0.78368602  0.64611741  0.50473214     0.18700
C4082       C  0.76755718  0.66318443  0.49611062     0.23700
C4083       C  0.77517674  0.68415448  0.48360311    -0.24300
C4084       C  0.79915727  0.68731035  0.47864569     0.18600
F4085       F  0.80698531  0.70710658  0.46571499    -0.14200
F4086       F  0.83840094  0.67441009  0.48293351    -0.16600
F4087       F  0.74141650  0.66096787  0.00311205    -0.16600
F4088       F  0.77332442  0.62823265  0.01648956    -0.14200
C4089       C  0.49028423  0.52098284  0.87496421     0.23800
C4090       C  0.50447417  0.50145191  0.88161320    -0.24300
C4091       C  0.49353483  0.47972055  0.88255443     0.18700
C4092       C  0.46890254  0.47811667  0.88054770     0.23700
C4093       C  0.45455874  0.49825308  0.88034600    -0.24300
C4094       C  0.46561451  0.51964395  0.87587750     0.18600
F4095       F  0.45257062  0.53942036  0.87377584    -0.14200
F4096       F  0.50030657  0.54180536  0.87004704    -0.16600
F4097       F  0.45899210  0.45690132  0.88020529    -0.16600
F4098       F  0.50665646  0.46011028  0.88602173    -0.14200
C4099       C  0.62006919  0.48006853  0.54506841     0.23800
C4100       C  0.60062783  0.49355359  0.53533167    -0.24300
C4101       C  0.58560928  0.50312867  0.55776057     0.18700
C4102       C  0.58775851  0.49613228  0.58803162     0.23700
C4103       C  0.60295531  0.47762799  0.59513200    -0.24300
C4104       C  0.62142360  0.47247639  0.57512142     0.18600
F4105       F  0.63810646  0.45646953  0.58255210    -0.14200
F4106       F  0.62378555  0.50840080  0.05649786    -0.16600
F4107       F  0.57153640  0.50346747  0.60868634    -0.16600
F4108       F  0.56767528  0.51767016  0.55032697    -0.14200
C4109       C  0.65322031  0.61874020  0.83015486     0.23800
C4110       C  0.63237655  0.62401500  0.84607162    -0.24300
C4111       C  0.62383276  0.64699855  0.84649342     0.18700
C4112       C  0.63737309  0.66471046  0.83437980     0.23700
C4113       C  0.65927019  0.65950686  0.82141293    -0.24300
C4114       C  0.66657245  0.63641278  0.81790021     0.18600
F4115       F  0.68753472  0.63114171  0.80494454    -0.14200
F4116       F  0.66140486  0.59655669  0.82805901    -0.16600
F4117       F  0.62970065  0.68707959  0.83658392    -0.16600
F4118       F  0.60351614  0.65259387  0.86088432    -0.14200
C4119       C  0.71979616  0.51690288  0.93298081     0.23800
C4120       C  0.70317083  0.52158756  0.95595381    -0.24300
C4121       C  0.71118343  0.52654936  0.98566315     0.18700
C4122       C  0.73525089  0.52806497  0.99187136     0.23700
C4123       C  0.75189850  0.52421477  0.96863576    -0.24300
C4124       C  0.74387388  0.51791806  0.93930855     0.18600
F4125       F  0.75928341  0.51461632  0.91608531    -0.14200
F4126       F  0.71266855  0.51217223  0.90404194    -0.16600
F4127       F  0.76661932  0.53856995  0.40331375    -0.16600
F4128       F  0.69565703  0.53169011  0.00819005    -0.14200
C4129       C  0.68748435  0.61507506  0.49873745     0.23800
C4130       C  0.67034391  0.61605817  0.98572815    -0.24300
C4131       C  0.67860735  0.63413054  0.96767122     0.18700
C4132       C  0.68628605  0.65459417  0.98146723     0.23700
C4133       C  0.68068608  0.65641365  0.50909062    -0.24300
C4134       C  0.69193031  0.63523356  0.51618259     0.18600
F4135       F  0.70760867  0.63412205  0.53943443    -0.14200
F4136       F  0.69815185  0.59477947  0.50662710    -0.16600
F4137       F  0.69327933  0.67206127  0.96304535    -0.16600
F4138       F  0.67693674  0.63305345  0.93674551    -0.14200
C4139       C  0.98986369  0.97719835  0.64159661     0.23800
C4140       C  0.97769338  0.97380905  0.66946286    -0.24300
C4141       C  0.99067745  0.97685515  0.69648753     0.18700
C4142       C  0.01406705  0.98398027  0.69610797     0.23700
C4143       C  0.02652595  0.98789284  0.66871349    -0.24300
C4144       C  0.01404107  0.98366988  0.64121740     0.18600
F4145       F  0.02487235  0.98645741  0.61398845    -0.14200
F4146       F  0.97851670  0.97397141  0.61471201    -0.16600
F4147       F  0.02439033  0.98803163  0.72339404    -0.16600
F4148       F  0.98037292  0.97363015  0.72403086    -0.14200
C4149       C  0.90592583  0.96568525  0.82183391     0.23800
C4150       C  0.92238502  0.95368179  0.80349211    -0.24300
C4151       C  0.94329521  0.96490692  0.79710531     0.18700
C4152       C  0.94284775  0.98893309  0.79547153     0.23700
C4153       C  0.92327153  0.00167778  0.80599286    -0.24300
C4154       C  0.90600075  0.99001694  0.82240452     0.18600
F4155       F  0.88807080  0.00187560  0.83580680    -0.14200
F4156       F  0.88759786  0.95431405  0.83404871    -0.16600
F4157       F  0.96068394  0.99938041  0.78116906    -0.16600
F4158       F  0.96150519  0.95306799  0.78424915    -0.14200
C4159       C  0.78656079  0.87548978  0.76700700     0.23800
C4160       C  0.78445594  0.87890379  0.73513384    -0.24300
C4161       C  0.76730103  0.86701970  0.71902034     0.18700
C4162       C  0.75472771  0.84965562  0.73351956     0.23700
C4163       C  0.75927324  0.84381086  0.76445552    -0.24300
C4164       C  0.77396260  0.85809108  0.78161851     0.18600
F4165       F  0.77832668  0.85343703  0.81145913    -0.14200
F4166       F  0.80298800  0.88708199  0.78323365    -0.16600
F4167       F  0.73980204  0.83697438  0.71628427    -0.16600
F4168       F  0.76507628  0.86983122  0.68838165    -0.14200
C4169       C  0.77013642  0.86240907  0.58919749     0.23800
C4170       C  0.77868641  0.84163162  0.57669027    -0.24300
C4171       C  0.80268128  0.83853177  0.57168700     0.18700
C4172       C  0.81831362  0.85560394  0.58084298     0.23700
C4173       C  0.81006690  0.87592773  0.59567954    -0.24300
C4174       C  0.78564008  0.87952406  0.59856346     0.18600
F4175       F  0.77665539  0.89905383  0.61185754    -0.14200
F4176       F  0.74682929  0.86574616  0.59335412    -0.16600
F4177       F  0.84152045  0.85138655  0.57702443    -0.16600
F4178       F  0.81106739  0.81829140  0.55962026    -0.14200
C4179       C  0.51692144  0.02645594  0.78493049     0.23800
C4180       C  0.52569605  0.00340828  0.78503110    -0.24300
C4181       C  0.50914518  0.98546729  0.78672153     0.18700
C4182       C  0.48474188  0.99038338  0.78706909     0.23700
C4183       C  0.47592238  0.01346110  0.78670817    -0.24300
C4184       C  0.49254959  0.03139612  0.78593480     0.18600
F4185       F  0.48516549  0.05383930  0.78414051    -0.14200
F4186       F  0.53205363  0.04434211  0.78325141    -0.16600
F4187       F  0.46964699  0.97241906  0.78690840    -0.16600
F4188       F  0.51655325  0.96297571  0.78613405    -0.14200
C4189       C  0.60411510  0.01147008  0.61486374     0.23800
C4190       C  0.61750324  0.02379524  0.63639808    -0.24300
C4191       C  0.62983860  0.04339765  0.62712006     0.18700
C4192       C  0.62623852  0.05225506  0.59772842     0.23700
C4193       C  0.61055664  0.04124154  0.57765592    -0.24300
C4194       C  0.60132897  0.01972777  0.58546879     0.18600
F4195       F  0.58665003  0.00850637  0.56609947    -0.14200
F4196       F  0.59214945  0.99226907  0.62286192    -0.16600
F4197       F  0.63537641  0.07315844  0.59056966    -0.16600
F4198       F  0.64321870  0.05528073  0.64731796    -0.14200
C4199       C  0.63323548  0.83892791  0.73938084     0.23800
C4200       C  0.64367735  0.85781506  0.75447107    -0.24300
C4201       C  0.66796776  0.85719937  0.75958746     0.18700
C4202       C  0.68145085  0.83855595  0.74950645     0.23700
C4203       C  0.67102842  0.81923715  0.73570087    -0.24300
C4204       C  0.64677861  0.81961769  0.73053400     0.18600
F4205       F  0.63620017  0.80125063  0.71704135    -0.14200
F4206       F  0.60997958  0.83904558  0.73328929    -0.16600
F4207       F  0.70468769  0.83908538  0.75502103    -0.16600
F4208       F  0.67914590  0.87498722  0.77358867    -0.14200
C4209       C  0.74433592  0.95086546  0.76417804     0.23800
C4210       C  0.72980391  0.96552292  0.74620128    -0.24300
C4211       C  0.74084942  0.98084974  0.72596429     0.18700
C4212       C  0.76527875  0.98072428  0.72264761     0.23700
C4213       C  0.77965712  0.96534228  0.73938284    -0.24300
C4214       C  0.76890428  0.95083067  0.76080734     0.18600
F4215       F  0.78199153  0.93512393  0.77655194    -0.14200
F4216       F  0.73479103  0.93582000  0.78421374    -0.16600
F4217       F  0.77487258  0.99464864  0.70127978    -0.16600
F4218       F  0.72794869  0.99473373  0.70732078    -0.14200
C4219       C  0.69434252  0.86312729  0.67756625     0.23800
C4220       C  0.67060693  0.86888692  0.68069409    -0.24300
C4221       C  0.65395117  0.85413155  0.66720207     0.18700
C4222       C  0.66081970  0.83479018  0.64966344     0.23700
C4223       C  0.68460382  0.82974151  0.64473016    -0.24300
C4224       C  0.70131712  0.84382100  0.65970711     0.18600
F4225       F  0.72452093  0.83986911  0.65552069    -0.14200
F4226       F  0.71080065  0.87715599  0.68982040    -0.16600
F4227       F  0.64407918  0.82122959  0.63712159    -0.16600
F4228       F  0.63076914  0.85886856  0.67035814    -0.14200
C4229       C  0.97653337  0.49594052  0.74777816     0.23800
C4230       C  0.99978787  0.50375666  0.74684891    -0.24300
C4231       C  0.01757893  0.48656555  0.74425824     0.18700
C4232       C  0.01240034  0.46249680  0.74502095     0.23700
C4233       C  0.98918328  0.45479087  0.74762517    -0.24300
C4234       C  0.97134212  0.47195789  0.74805488     0.18600
F4235       F  0.94879580  0.46550096  0.75159085    -0.14200
F4236       F  0.95879320  0.51162250  0.75110638    -0.16600
F4237       F  0.03028035  0.44680078  0.74600719    -0.16600
F4238       F  0.04027983  0.49306575  0.74450899    -0.14200
C4239       C  0.93981539  0.59733632  0.86947990     0.23800
C4240       C  0.95729844  0.57998822  0.86964587    -0.24300
C4241       C  0.96588966  0.57170861  0.89784710     0.18700
C4242       C  0.95686650  0.58019246  0.92508063     0.23700
C4243       C  0.93801224  0.59581969  0.92482717    -0.24300
C4244       C  0.93033453  0.60541308  0.89699321     0.18600
F4245       F  0.91231098  0.62097301  0.89615162    -0.14200
F4246       F  0.93091503  0.60539018  0.84276659    -0.16600
F4247       F  0.96526941  0.57169635  0.95185591    -0.16600
F4248       F  0.98290982  0.55514369  0.89932134    -0.14200
C4249       C  0.06003881  0.46181397  0.84556925     0.23800
C4250       C  0.08189087  0.46363153  0.85999296    -0.24300
C4251       C  0.10076332  0.47228955  0.84297957     0.18700
C4252       C  0.09614085  0.48569702  0.81728663     0.23700
C4253       C  0.07274445  0.49066187  0.81001674    -0.24300
C4254       C  0.05580297  0.47467289  0.81926560     0.18600
F4255       F  0.03361665  0.47617573  0.80845120    -0.14200
F4256       F  0.04193628  0.45097498  0.85914810    -0.16600
F4257       F  0.11376165  0.49793926  0.80468324    -0.16600
F4258       F  0.12301727  0.47095031  0.85366974    -0.14200
C4259       C  0.10907192  0.68335222  0.89201244     0.23800
C4260       C  0.10083434  0.66170057  0.90152573    -0.24300
C4261       C  0.11065879  0.65218673  0.92876156     0.18700
C4262       C  0.12939610  0.66294475  0.94401866     0.23700
C4263       C  0.13860011  0.68367801  0.93298647    -0.24300
C4264       C  0.12755358  0.69411973  0.90749626     0.18600
F4265       F  0.13548085  0.71450502  0.89651641    -0.14200
F4266       F  0.09977714  0.69393891  0.86710821    -0.16600
F4267       F  0.13965718  0.65209877  0.96809428    -0.16600
F4268       F  0.10309451  0.63170425  0.94000995    -0.14200
C4269       C  0.14221526  0.65355715  0.81378410     0.23800
C4270       C  0.14022756  0.63092532  0.80168604    -0.24300
C4271       C  0.15950299  0.62047882  0.78739608     0.18700
C4272       C  0.17920756  0.63369197  0.78139125     0.23700
C4273       C  0.17929963  0.65777413  0.78852642    -0.24300
C4274       C  0.16154951  0.66693693  0.80721580     0.18600
F4275       F  0.16186233  0.68932014  0.81713286    -0.14200
F4276       F  0.12457851  0.66336284  0.83019530    -0.16600
F4277       F  0.19729632  0.62328667  0.76635742    -0.16600
F4278       F  0.15848762  0.59832686  0.77670396    -0.14200
C4279       C  0.99023550  0.99151213  0.84221700     0.36600
C4280       C  0.00077253  0.00672196  0.82113059    -0.24300
C4281       C  0.01570468  0.99659366  0.79932122     0.18700
C4282       C  0.01950081  0.97247030  0.79749664     0.23700
C4283       C  0.00853794  0.95680633  0.81749737    -0.24300
C4284       C  0.99401133  0.96691534  0.84039580     0.18600
F4285       F  0.98218267  0.95301753  0.85971163    -0.14200
F4286       F  0.97483558  0.00019623  0.86301013    -0.16600
F4287       F  0.03355859  0.96443655  0.77496546    -0.16600
F4288       F  0.02574537  0.01031553  0.77822795    -0.14200
C4289       C  0.09157767  0.95309784  0.80668620     0.23800
C4290       C  0.08985544  0.93736747  0.78194744    -0.24300
C4291       C  0.08538218  0.94593737  0.75275919     0.18700
C4292       C  0.07819035  0.96868280  0.74914857     0.23700
C4293       C  0.08063789  0.98482496  0.77319874    -0.24300
C4294       C  0.08793277  0.97689321  0.80194389     0.18600
F4295       F  0.09017971  0.99197566  0.82568870    -0.14200
F4296       F  0.09616386  0.94553024  0.83539464    -0.16600
F4297       F  0.06793963  0.97425967  0.72228331    -0.16600
F4298       F  0.08673663  0.93200716  0.72767787    -0.14200
C4299       C  0.98251012  0.85736577  0.65669264     0.23800
C4300       C  0.99436068  0.87518064  0.67240719    -0.24300
C4301       C  0.99696718  0.89667508  0.65753284     0.18700
C4302       C  0.98317410  0.90152931  0.63191330     0.23700
C4303       C  0.96455032  0.88664818  0.62553904    -0.24300
C4304       C  0.96790232  0.86313173  0.63227369     0.18600
F4305       F  0.95228477  0.84727561  0.62222629    -0.14200
F4306       F  0.98320031  0.83508041  0.66658539    -0.16600
F4307       F  0.98270615  0.92344503  0.62073230    -0.16600
F4308       F  0.01043495  0.91373707  0.66937367    -0.14200
C4309       C  0.13074161  0.77100664  0.90942768     0.23800
C4310       C  0.15115962  0.76679645  0.89223434    -0.24300
C4311       C  0.15454342  0.77894685  0.86494463     0.18700
C4312       C  0.13781952  0.79523434  0.85521316     0.23700
C4313       C  0.11758386  0.79948202  0.87269319    -0.24300
C4314       C  0.11401497  0.78702749  0.89955035     0.18600
F4315       F  0.09428212  0.79044182  0.91623877    -0.14200
F4316       F  0.12702553  0.75963713  0.93602318    -0.16600
F4317       F  0.14094727  0.80624921  0.82821503    -0.16600
F4318       F  0.17440512  0.77582245  0.84849161    -0.14200
C4319       C  0.99053370  0.73733509  0.81157958     0.23800
C4320       C  0.00233427  0.74882504  0.78790330    -0.24300
C4321       C  0.01514545  0.73518344  0.76685524     0.18700
C4322       C  0.01766224  0.71100761  0.77087150     0.23700
C4323       C  0.00730160  0.69977052  0.79591475    -0.24300
C4324       C  0.99288130  0.71310424  0.81547173     0.18600
F4325       F  0.98278140  0.70306869  0.84001051    -0.14200
F4326       F  0.97801204  0.74991194  0.83231833    -0.16600
F4327       F  0.03114363  0.69866798  0.75092350    -0.16600
F4328       F  0.02707382  0.74552147  0.74400388    -0.14200
C4329       C  0.09338823  0.75742945  0.72360330     0.23800
C4330       C  0.08890906  0.75842639  0.75548235    -0.24300
C4331       C  0.10389226  0.74604650  0.77498475     0.18700
C4332       C  0.12439319  0.73582873  0.76361129     0.23700
C4333       C  0.13094608  0.73860496  0.73263904    -0.24300
C4334       C  0.11442636  0.74803696  0.71239897     0.18600
F4335       F  0.11933228  0.75000712  0.68220593    -0.14200
F4336       F  0.07843304  0.76734721  0.70327950    -0.16600
F4337       F  0.13867268  0.72465880  0.78364781    -0.16600
F4338       F  0.09978493  0.74532393  0.80549272    -0.14200
C4339       C  0.50587339  0.91562981  0.71823121     0.23800
C4340       C  0.51413472  0.93836117  0.71461007    -0.24300
C4341       C  0.50058224  0.95449220  0.69814077     0.18700
C4342       C  0.48179056  0.94694547  0.68080829     0.23700
C4343       C  0.47669793  0.92308107  0.67939148    -0.24300
C4344       C  0.48735906  0.90795882  0.70044310     0.18600
F4345       F  0.48109806  0.88534894  0.70227461    -0.14200
F4346       F  0.51698883  0.90009660  0.73655845    -0.16600
F4347       F  0.47022303  0.96271629  0.66327008    -0.16600
F4348       F  0.50664345  0.97718232  0.69668650    -0.14200
C4349       C  0.38452271  0.00062523  0.62522992     0.23800
C4350       C  0.37302655  0.98966289  0.64953726    -0.24300
C4351       C  0.35702663  0.97199400  0.64291604     0.18700
C4352       C  0.35571631  0.96283738  0.61330116     0.23700
C4353       C  0.37033523  0.97142117  0.59029221    -0.24300
C4354       C  0.38226063  0.99218265  0.59560720     0.18600
F4355       F  0.39513732  0.00185662  0.57310022    -0.14200
F4356       F  0.39941899  0.01842019  0.63021191    -0.16600
F4357       F  0.34286006  0.94354569  0.60838122    -0.16600
F4358       F  0.34449174  0.96202471  0.66549904    -0.14200
C4359       C  0.49672829  0.00997439  0.51579235     0.23800
C4360       C  0.49924044  0.02403006  0.54228932    -0.24300
C4361       C  0.49323616  0.01395260  0.57042570     0.18700
C4362       C  0.48484611  0.99117643  0.57220686     0.23700
C4363       C  0.48146161  0.97715020  0.54585103    -0.24300
C4364       C  0.48789997  0.98692849  0.51751327     0.18600
F4365       F  0.48524690  0.97446196  0.49136902    -0.14200
F4366       F  0.50334268  0.01829843  0.48825216    -0.16600
F4367       F  0.50195738  0.96663530  0.02972396    -0.16600
F4368       F  0.51854977  0.01017784  0.03144200    -0.14200
C4369       C  0.31886867  0.81838537  0.59708625     0.23800
C4370       C  0.34160504  0.80915398  0.59311021    -0.24300
C4371       C  0.34640911  0.78635258  0.60234829     0.18700
C4372       C  0.32932104  0.77366226  0.61760571     0.23700
C4373       C  0.30711689  0.78367840  0.62393689    -0.24300
C4374       C  0.30183820  0.80584279  0.61246090     0.18600
F4375       F  0.28042517  0.81570504  0.61692317    -0.14200
F4376       F  0.31367791  0.84036356  0.58798167    -0.16600
F4377       F  0.33520787  0.75228431  0.62830105    -0.16600
F4378       F  0.36830177  0.77725894  0.59944555    -0.14200
C4379       C  0.31307704  0.84752655  0.99240442     0.23800
C4380       C  0.33124289  0.85131902  0.97159143    -0.24300
C4381       C  0.33399488  0.83653478  0.94624462     0.18700
C4382       C  0.32021476  0.81691930  0.94327617     0.23700
C4383       C  0.30369016  0.81169412  0.96598459    -0.24300
C4384       C  0.29946285  0.82780005  0.98970134     0.18600
F4385       F  0.28254775  0.82423831  0.01079827    -0.14200
F4386       F  0.32505734  0.85289487  0.52381338    -0.16600
F4387       F  0.32403594  0.80248101  0.91908661    -0.16600
F4388       F  0.35092323  0.84041794  0.92525861    -0.14200
C4389       C  0.51628911  0.51264933  0.67240464     0.23800
C4390       C  0.49747083  0.52313276  0.65659577    -0.24300
C4391       C  0.48241744  0.50831399  0.64007677     0.18700
C4392       C  0.48686931  0.48427883  0.63751814     0.23700
C4393       C  0.50632349  0.47386038  0.65172344    -0.24300
C4394       C  0.52072463  0.48830723  0.66988911     0.18600
F4395       F  0.54024428  0.47922241  0.68307537    -0.14200
F4396       F  0.53140093  0.52611238  0.68825868    -0.16600
F4397       F  0.47289358  0.47129037  0.61928010    -0.16600
F4398       F  0.46376376  0.51739291  0.62486426    -0.14200
C4399       C  0.53917322  0.59019473  0.53827697     0.23800
C4400       C  0.52972799  0.61259040  0.54187359    -0.24300
C4401       C  0.46861915  0.61180896  0.92845036     0.18700
C4402       C  0.48824125  0.60253993  0.91371428     0.23700
C4403       C  0.49388714  0.57895537  0.91793893    -0.24300
C4404       C  0.47680249  0.56402102  0.92942201     0.18600
F4405       F  0.48137718  0.54104990  0.93330636    -0.14200
F4406       F  0.54839887  0.57853058  0.56243898    -0.16600
F4407       F  0.50363635  0.61720440  0.90067755    -0.16600
F4408       F  0.46535628  0.63521349  0.92900373    -0.14200
C4409       C  0.39355806  0.54322482  0.55910218     0.23800
C4410       C  0.41355258  0.55611241  0.55227322    -0.24300
C4411       C  0.41532956  0.56695259  0.52357607     0.18700
C4412       C  0.39855986  0.56323123  0.50140160     0.23700
C4413       C  0.38031873  0.54806718  0.50713788    -0.24300
C4414       C  0.37685961  0.53939249  0.53663852     0.18600
F4415       F  0.35900818  0.52480653  0.54263669    -0.14200
F4416       F  0.39073598  0.53330251  0.58688221    -0.16600
F4417       F  0.34120917  0.53532562  0.05138062    -0.16600
F4418       F  0.43347267  0.58083243  0.51650503    -0.14200
C4419       C  0.34424008  0.63622663  0.67237271     0.23800
C4420       C  0.36374443  0.63730220  0.69180468    -0.24300
C4421       C  0.36324329  0.65216015  0.71731470     0.18700
C4422       C  0.34546032  0.66862141  0.72026473     0.23700
C4423       C  0.32769027  0.66989603  0.69808369    -0.24300
C4424       C  0.32639097  0.65260961  0.67533612     0.18600
F4425       F  0.30827808  0.65195194  0.65530347    -0.14200
F4426       F  0.34351716  0.62103767  0.64852560    -0.16600
F4427       F  0.34659517  0.68421845  0.74360245    -0.16600
F4428       F  0.38113316  0.65219042  0.73773758    -0.14200
C4429       C  0.44578987  0.77309659  0.63362688     0.23800
C4430       C  0.44934606  0.78081980  0.60346245    -0.24300
C4431       C  0.45771735  0.76441142  0.58190253     0.18700
C4432       C  0.46233477  0.74108442  0.59017932     0.23700
C4433       C  0.45797646  0.73312150  0.62009031    -0.24300
C4434       C  0.44966643  0.74959002  0.64167637     0.18600
F4435       F  0.44538556  0.74296356  0.67080473    -0.14200
F4436       F  0.43767579  0.78817742  0.65521292    -0.16600
F4437       F  0.47025364  0.72604392  0.56843304    -0.16600
F4438       F  0.46170066  0.77102597  0.55269189    -0.14200
C4439       C  0.36053945  0.70610040  0.58004159     0.23800
C4440       C  0.36618928  0.68280092  0.58613224    -0.24300
C4441       C  0.35098576  0.66554256  0.57519445     0.18700
C4442       C  0.33096854  0.67127330  0.55795723     0.23700
C4443       C  0.32557723  0.69455449  0.55075252    -0.24300
C4444       C  0.34046084  0.71195498  0.56279827     0.18600
F4445       F  0.33648721  0.73470021  0.55636203    -0.14200
F4446       F  0.37527570  0.72312007  0.58900712    -0.16600
F4447       F  0.31067329  0.67893636  0.06816492    -0.16600
F4448       F  0.35640809  0.64277564  0.57962531    -0.14200
loop_ 
_geom_bond_atom_site_label_1 
_geom_bond_atom_site_label_2 
_geom_bond_distance 
_geom_bond_site_symmetry_2 
_ccdc_geom_bond_type 
Zr1           O2   2.440       .  S
Zr1           O3   2.487       .  S
Zr1           O4   2.416       .  S
Zr1           O7   2.394       .  S
Zr1           O9   2.374       .  S
Zr1          O10   2.396       .  S
Zr1          O11   2.423       .  S
Zr1          O12   2.430       .  S
O2           H58   0.990       .  S
O2           H66   0.990       .  S
O3           C23   1.284       .  A
O4           C25   1.280       .  A
O5          Zr15   2.428       .  S
O5           C24   1.283       .  A
O6          Zr14   2.510       .  S
O6           C25   1.297       .  A
O7           C24   1.273       .  A
O8          Zr16   2.395       .  S
O8           C23   1.266       .  A
O9          Zr14   2.355       .  S
O9          Zr16   2.390       .  S
O10         Zr15   2.388       .  S
O10         Zr16   2.376       .  S
O10          H45   0.965       .  S
O11         Zr14   2.391       .  S
O11         Zr31   2.462       .  S
O11          H48   0.966       .  S
O12         Zr15   2.383       .  S
O12         Zr31   2.436       .  S
Zr13         O38   2.439       .  S
Zr13         O32   2.435       .  S
Zr13         O40   2.398       .  S
Zr13         O28   2.425   1_554  S
Zr13         O19   2.389       .  S
Zr13         O20   2.405       .  S
Zr13         O21   2.380       .  S
Zr13         O22   2.378       .  S
Zr14         O33   2.436       .  S
Zr14         O26   2.437   1_554  S
Zr14         O27   2.414   1_554  S
Zr14         O20   2.425       .  S
Zr14         O21   2.424       .  S
Zr15         O17   2.434       .  S
Zr15         O39   2.439       .  S
Zr15         O41   2.409       .  S
Zr15         O19   2.409       .  S
Zr15         O22   2.387       .  S
Zr16         O42   2.438       .  S
Zr16         O43   2.444       .  S
Zr16         O18   2.439       .  S
Zr16         O19   2.367       .  S
Zr16         O20   2.360       .  S
O17          H54   0.990       .  S
O18          H63   0.990       .  S
O18        H2273   0.990       .  S
O20          H46   0.962       .  S
O21         Zr31   2.372       .  S
O22         Zr31   2.349       .  S
O22          H47   0.965       .  S
C23        C2216   1.475       .  S
C24        C2196   1.468       .  S
C25        C2209   1.513       .  S
O26          H62   0.991       .  S
O27          C29   1.282       .  A
O28          C29   1.285       .  A
C29        C2176   1.472       .  S
O30         Zr31   2.436       .  S
O30          H59   0.991       .  S
Zr31         O34   2.436       .  S
Zr31         O35   2.436       .  S
Zr31         O36   2.545       .  S
O32          C37   1.283       .  A
O33          H50   0.990       .  S
O33          H65   0.990       .  S
O34          H51   0.990       .  S
O35          H55   0.990       .  S
O35          H64   0.990       .  S
O36          C37   1.303       .  A
C37        C2166   1.534       .  S
O38          H57   0.990       .  S
O38          H61   0.990       .  S
O39          H53   0.990       .  S
O39          H60   0.991       .  S
O40          C44   1.283       .  A
O41          C44   1.277       .  A
O42          H52   0.990       .  S
O43        H2280   0.990       .  S
C44        C2186   1.452       .  S
H49        O2242   0.990       .  S
H56        O2267   0.989       .  S
Zr67       O2292   2.442   1_554  S
Zr67         O69   2.494       .  S
Zr67         O70   2.467       .  S
Zr67         O73   2.408   1_554  S
Zr67         O75   2.372       .  S
Zr67         O76   2.395       .  S
Zr67         O77   2.425       .  S
Zr67         O78   2.432   1_554  S
O68       Zr2291   2.439       .  S
O68         H124   0.991       .  S
O68         H132   0.990       .  S
O69          C89   1.295       .  A
O70          C91   1.288       .  A
O71         Zr81   2.418   1_556  S
O71          C90   1.275       .  A
O72         Zr80   2.453       .  S
O72          C91   1.288       .  A
O73          C90   1.273       .  A
O74         Zr82   2.384       .  S
O74          C89   1.275       .  A
O75         Zr80   2.395       .  S
O75         Zr82   2.385       .  S
O76         Zr81   2.406       .  S
O76         Zr82   2.378       .  S
O76         H111   0.965       .  S
O77         Zr80   2.389       .  S
O77         Zr97   2.450   1_554  S
O77         H114   0.965   1_554  S
O78         Zr81   2.398   1_556  S
O78         Zr97   2.420       .  S
Zr79        O104   2.434       .  S
Zr79         O98   2.401       .  S
Zr79        O106   2.426       .  S
Zr79         O94   2.417       .  S
Zr79         O85   2.391       .  S
Zr79         O86   2.399       .  S
Zr79         O87   2.379       .  S
Zr79         O88   2.384       .  S
Zr80         O99   2.436       .  S
Zr80         O92   2.437       .  S
Zr80         O93   2.423       .  S
Zr80         O86   2.402       .  S
Zr80         O87   2.409       .  S
Zr81        O105   2.441       .  S
Zr81       O2307   2.435   1_554  S
Zr81        O107   2.417       .  S
Zr81         O85   2.398       .  S
Zr81         O88   2.391       .  S
Zr82        O108   2.435       .  S
Zr82        O109   2.437       .  S
Zr82         O84   2.438       .  S
Zr82         O85   2.368       .  S
Zr82         O86   2.368       .  S
O83       Zr2305   2.436       .  S
O83         H120   0.990       .  S
O84         H115   0.990       .  S
O84         H129   0.990       .  S
O86         H112   0.965       .  S
O87         Zr97   2.375   1_554  S
O88         Zr97   2.362   1_554  S
O88         H113   0.966       .  S
C89        C2146   1.484       .  S
C90        C4380   1.461       .  S
C91        C2206   1.513       .  S
O92         H128   0.990       .  S
O93          C95   1.283       .  A
O94          C95   1.283       .  A
C95        C2119   1.480       .  S
O96       Zr2321   2.438       .  S
O96         H125   0.990       .  S
Zr97       O2320   2.438       .  S
Zr97       O2324   2.434       .  S
Zr97       O2325   2.438       .  S
Zr97        O102   2.524       .  S
O98         C103   1.278       .  A
O99         H116   0.990       .  S
O99         H131   0.990       .  S
O100      Zr2321   2.438       .  S
O100        H117   0.990       .  S
O101      Zr2321   2.436       .  S
O101        H121   0.990       .  S
O101        H130   0.991       .  S
O102        C103   1.300   1_556  A
C103       C2139   1.505   1_554  S
O104        H123   0.990       .  S
O104        H127   0.989       .  S
O105        H119   0.990   1_554  S
O105        H126   0.991       .  S
O106        C110   1.275       .  A
O107        C110   1.278       .  A
O108        H118   0.990       .  S
O109        H122   0.991       .  S
C110       C2129   1.464       .  S
Zr133       O134   2.439       .  S
Zr133       O135   2.475       .  S
Zr133       O136   2.404       .  S
Zr133       O139   2.392       .  S
Zr133       O141   2.371       .  S
Zr133       O142   2.379       .  S
Zr133       O143   2.418       .  S
Zr133       O144   2.416       .  S
O134        H190   0.991       .  S
O134        H198   0.989       .  S
O135        C155   1.292       .  A
O136        C157   1.274       .  A
O137       Zr147   2.451       .  S
O137        C156   1.288       .  A
O138       Zr146   2.477       .  S
O138        C157   1.288       .  A
O139        C156   1.277       .  A
O140       Zr148   2.378       .  S
O140        C155   1.275       .  A
O141       Zr146   2.378       .  S
O141       Zr148   2.378       .  S
O142       Zr147   2.378       .  S
O142       Zr148   2.356       .  S
O142        H177   0.965       .  S
O143       Zr146   2.394       .  S
O143       Zr163   2.438       .  S
O143        H180   0.966       .  S
O144       Zr147   2.394       .  S
O144       Zr163   2.437       .  S
Zr145       O170   2.434       .  S
Zr145       O164   2.452       .  S
Zr145       O172   2.432       .  S
Zr145       O160   2.443       .  S
Zr145       O151   2.414       .  S
Zr145       O152   2.408       .  S
Zr145       O153   2.379       .  S
Zr145       O154   2.388       .  S
Zr146       O165   2.435   1_455  S
Zr146       O158   2.435   1_455  S
Zr146       O159   2.432   1_455  S
Zr146       O152   2.401       .  S
Zr146       O153   2.413       .  S
Zr147       O149   2.434       .  S
Zr147       O171   2.436       .  S
Zr147       O173   2.397       .  S
Zr147       O151   2.422       .  S
Zr147       O154   2.427       .  S
Zr148       O174   2.434       .  S
Zr148       O175   2.436       .  S
Zr148       O150   2.438       .  S
Zr148       O151   2.388       .  S
Zr148       O152   2.345       .  S
O149        H186   0.990       .  S
O150        H181   0.990       .  S
O150        H195   0.991       .  S
O152        H178   0.962       .  S
O153       Zr163   2.382       .  S
O154       Zr163   2.354       .  S
O154        H179   0.965       .  S
C155       C2106   1.483       .  S
C156       C2089   1.471       .  S
C157       C2096   1.481       .  S
O158        H194   0.991       .  S
O159        C161   1.285   1_655  A
O160        C161   1.287       .  A
C161       C2076   1.481   1_455  S
O162       Zr163   2.435       .  S
O162        H191   0.990       .  S
Zr163       O166   2.436   1_455  S
Zr163       O167   2.436       .  S
Zr163       O168   2.521       .  S
O164        C169   1.287       .  A
O165        H182   0.990       .  S
O165        H197   0.990       .  S
O166        H183   0.990       .  S
O167        H187   0.990       .  S
O167        H196   0.990       .  S
O168        C169   1.298       .  A
C169       C2059   1.544       .  S
O170        H189   0.989       .  S
O170        H193   0.987       .  S
O171        H185   0.991       .  S
O171        H192   0.990       .  S
O172        C176   1.280       .  A
O173        C176   1.272       .  A
O174        H184   0.990       .  S
O175        H188   0.990       .  S
C176       C2066   1.469       .  S
Zr199       O200   2.439       .  S
Zr199       O201   2.513       .  S
Zr199       O202   2.422       .  S
Zr199       O205   2.391       .  S
Zr199       O207   2.367       .  S
Zr199       O208   2.370       .  S
Zr199       O209   2.430       .  S
Zr199       O210   2.431       .  S
O200        H256   0.990       .  S
O200        H264   0.990       .  S
O201        C221   1.300       .  A
O202        C223   1.282       .  A
O203       Zr213   2.443       .  S
O203        C222   1.285       .  A
O204       Zr212   2.459       .  S
O204        C223   1.288       .  A
O205        C222   1.278       .  A
O206       Zr214   2.400       .  S
O206        C221   1.277       .  A
O207       Zr212   2.394       .  S
O207       Zr214   2.392       .  S
O208       Zr213   2.380       .  S
O208       Zr214   2.361       .  S
O208        H243   0.965       .  S
O209       Zr212   2.391       .  S
O209       Zr229   2.448       .  S
O209        H246   0.966       .  S
O210       Zr213   2.385       .  S
O210       Zr229   2.445       .  S
Zr211       O236   2.439       .  S
Zr211       O230   2.409   1_455  S
Zr211       O238   2.408       .  S
Zr211       O226   2.414   1_455  S
Zr211       O217   2.407       .  S
Zr211       O218   2.416       .  S
Zr211       O219   2.392       .  S
Zr211       O220   2.378       .  S
Zr212       O231   2.437   1_455  S
Zr212       O224   2.435   1_455  S
Zr212       O225   2.420   1_455  S
Zr212       O218   2.400       .  S
Zr212       O219   2.421       .  S
Zr213       O215   2.435       .  S
Zr213       O237   2.435       .  S
Zr213       O239   2.410       .  S
Zr213       O217   2.411       .  S
Zr213       O220   2.382       .  S
Zr214       O240   2.435       .  S
Zr214       O241   2.435       .  S
Zr214       O216   2.439       .  S
Zr214       O217   2.402       .  S
Zr214       O218   2.354       .  S
O215        H252   0.990       .  S
O216        H247   0.990       .  S
O216        H261   0.990       .  S
O218        H244   0.958       .  S
O219       Zr229   2.359       .  S
O220       Zr229   2.343       .  S
O220        H245   0.964       .  S
C221       C2036   1.518       .  S
C222       C2046   1.465       .  S
C223       C2099   1.488       .  S
O224        H260   0.990       .  S
O225        C227   1.275       .  A
O226        C227   1.276       .  A
C227       C2016   1.474       .  S
O228       Zr229   2.437       .  S
O228        H257   0.990       .  S
Zr229       O232   2.436   1_455  S
Zr229       O233   2.435       .  S
Zr229       O234   2.554       .  S
O230        C235   1.278   1_655  A
O231        H248   0.990       .  S
O231        H263   0.990       .  S
O232        H249   0.990       .  S
O233        H253   0.990       .  S
O233        H262   0.989       .  S
O234        C235   1.306       .  A
C235       C2006   1.520   1_455  S
O236        H255   0.990       .  S
O236        H259   0.990       .  S
O237        H251   0.991       .  S
O237        H258   0.990       .  S
O238        C242   1.282       .  A
O239        C242   1.281       .  A
O240        H250   0.989       .  S
O241        H254   0.989       .  S
C242       C2029   1.468       .  S
Zr265      O2490   2.440       .  S
Zr265       O271   2.429       .  S
Zr265      O2491   2.424       .  S
Zr265      O2492   2.403       .  S
Zr265       O273   2.381       .  S
Zr265       O274   2.382       .  S
Zr265       O275   2.409       .  S
Zr265       O276   2.379       .  S
O266      Zr2489   2.439       .  S
O266        H322   0.991       .  S
O266        H330   0.990       .  S
O267      Zr2489   2.397       .  S
O267       C2511   1.277       .  A
O268      Zr2489   2.417       .  S
O268        C289   1.283       .  A
O269       Zr279   2.420       .  S
O269        C288   1.282       .  A
O270      Zr2502   2.475   1_554  S
O270        C289   1.294       .  A
O271        C288   1.286       .  A
O272       Zr280   2.499       .  S
O272        C287   1.297       .  A
O273       Zr278   2.416       .  S
O273       Zr280   2.362       .  S
O274       Zr279   2.398       .  S
O274       Zr280   2.377       .  S
O274        H309   0.965       .  S
O275       Zr278   2.426       .  S
O275       Zr295   2.390       .  S
O275       H2536   0.966       .  S
O276       Zr279   2.398       .  S
O276       Zr295   2.360       .  S
Zr277       O302   2.439       .  S
Zr277       O296   2.449       .  S
Zr277       O304   2.375       .  S
Zr277       O292   2.378       .  S
Zr277       O283   2.403       .  S
Zr277       O284   2.403       .  S
Zr277       O285   2.364       .  S
Zr277       O286   2.372       .  S
Zr278       O297   2.438       .  S
Zr278       O290   2.435       .  S
Zr278       O291   2.526       .  S
Zr278      O2494   2.452       .  S
Zr278       O284   2.388       .  S
Zr278       O285   2.370       .  S
Zr279       O281   2.438       .  S
Zr279       O303   2.437       .  S
Zr279       O305   2.462       .  S
Zr279       O283   2.385       .  S
Zr279       O286   2.389       .  S
Zr280       O306   2.434       .  S
Zr280       O307   2.436       .  S
Zr280       O282   2.437       .  S
Zr280       O283   2.423       .  S
Zr280       O284   2.433       .  S
O281        H318   0.990       .  S
O282        H313   0.990       .  S
O282        H327   0.990       .  S
O284        H310   0.966       .  S
O285       Zr295   2.374       .  S
O286       Zr295   2.386       .  S
O286        H311   0.966       .  S
C287       O2491   1.281       .  A
C287       C4443   1.514       .  S
C288       C2159   1.471       .  S
C289        C355   1.476       .  S
O290        H326   0.990       .  S
O291        C293   1.303       .  A
O292        C293   1.274       .  A
C293       C2039   1.502       .  S
O294       Zr295   2.435       .  S
O294        H323   0.990       .  S
Zr295       O298   2.436       .  S
Zr295       O299   2.438       .  S
Zr295       O300   2.380       .  S
O296        C301   1.285       .  A
O297       H2538   0.991       .  S
O297       H2553   0.990       .  S
O298        H315   0.990       .  S
O299        H319   0.990       .  S
O299        H328   0.990       .  S
O300        C301   1.273       .  A
C301       C2086   1.455       .  S
O302        H321   0.990       .  S
O302        H325   0.990       .  S
O303        H317   0.990       .  S
O303        H324   0.990       .  S
O304        C308   1.276       .  A
O305        C308   1.286       .  A
O306        H316   0.990       .  S
O307        H320   0.990       .  S
C308        C374   1.466       .  S
H312       O2499   0.965       .  S
H314       O2521   0.990       .  S
H329       O2521   0.990       .  S
Zr331       O332   2.418       .  S
Zr331       O333   2.397       .  S
Zr331       O334   2.452       .  S
Zr331       O337   2.453       .  S
Zr331       O339   2.373       .  S
Zr331       O340   2.385       .  S
Zr331       O341   2.397       .  S
Zr331       O342   2.381       .  S
O332        H388   0.988       .  S
O332        H396   0.990       .  S
O333        C353   1.277       .  A
O334        C355   1.290       .  A
O335       Zr345   2.376       .  S
O335        C354   1.274       .  A
O336       Zr344   2.433       .  S
O336        C355   1.283       .  A
O337        C354   1.290       .  A
O338       Zr346   2.480       .  S
O338        C353   1.293       .  A
O339       Zr344   2.403       .  S
O339       Zr346   2.362       .  S
O340       Zr345   2.401       .  S
O340       Zr346   2.365       .  S
O340        H375   0.966       .  S
O341       Zr344   2.418       .  S
O341       Zr361   2.393       .  S
O341        H378   0.966       .  S
O342       Zr345   2.399       .  S
O342       Zr361   2.364       .  S
Zr343       O368   2.441       .  S
Zr343       O362   2.442       .  S
Zr343       O370   2.393       .  S
Zr343       O358   2.368       .  S
Zr343       O349   2.396       .  S
Zr343       O350   2.403       .  S
Zr343       O351   2.367       .  S
Zr343       O352   2.360       .  S
Zr344       O363   2.436       .  S
Zr344       O356   2.434       .  S
Zr344       O357   2.486       .  S
Zr344       O350   2.389       .  S
Zr344       O351   2.375       .  S
Zr345       O347   2.437       .  S
Zr345       O369   2.434       .  S
Zr345       O371   2.443       .  S
Zr345       O349   2.379       .  S
Zr345       O352   2.384       .  S
Zr346       O372   2.436       .  S
Zr346       O373   2.435       .  S
Zr346       O348   2.436       .  S
Zr346       O349   2.419       .  S
Zr346       O350   2.418       .  S
O347        H384   0.990       .  S
O348        H379   0.990       .  S
O348        H393   0.990       .  S
O350        H376   0.966       .  S
O351       Zr361   2.381       .  S
O352       Zr361   2.384       .  S
O352        H377   0.966       .  S
C353       C2149   1.502       .  S
C354       C2199   1.452       .  S
O356        H392   0.990       .  S
O357        C359   1.295       .  A
O358        C359   1.273       .  A
C359       C2109   1.493       .  S
O360       Zr361   2.435       .  S
O360        H389   0.990       .  S
Zr361       O364   2.435       .  S
Zr361       O365   2.437       .  S
Zr361       O366   2.386       .  S
O362        C367   1.287       .  A
O363        H380   0.990       .  S
O363        H395   0.990       .  S
O364        H381   0.989       .  S
O365        H385   0.990       .  S
O365        H394   0.990       .  S
O366        C367   1.275       .  A
C367       C2049   1.479       .  S
O368        H387   0.991       .  S
O368        H391   0.990       .  S
O369        H383   0.990       .  S
O369        H390   0.990       .  S
O370        C374   1.278       .  A
O371        C374   1.282       .  A
O372        H382   0.990       .  S
O373        H386   0.990       .  S
Zr397       O398   2.445       .  S
Zr397       O399   2.435   1_565  S
Zr397       O400   2.418       .  S
Zr397       O403   2.429   1_565  S
Zr397       O405   2.373       .  S
Zr397       O406   2.387       .  S
Zr397       O407   2.417       .  S
Zr397       O408   2.379       .  S
O398        H454   0.990   1_565  S
O398        H462   0.990       .  S
O399        C419   1.281   1_545  A
O400        C421   1.282       .  A
O401       Zr411   2.457   1_545  S
O401        C420   1.288       .  A
O402       Zr410   2.423       .  S
O402        C421   1.280       .  A
O403        C420   1.283       .  A
O404       Zr412   2.502       .  S
O404        C419   1.294       .  A
O405       Zr410   2.392       .  S
O405       Zr412   2.369       .  S
O406       Zr411   2.428       .  S
O406       Zr412   2.386       .  S
O406        H441   0.966   1_565  S
O407       Zr410   2.418       .  S
O407       Zr427   2.386       .  S
O407        H444   0.963       .  S
O408       Zr411   2.377       .  S
O408       Zr427   2.351       .  S
Zr409       O434   2.440       .  S
Zr409       O428   2.494       .  S
Zr409       O436   2.446       .  S
Zr409       O424   2.413       .  S
Zr409       O415   2.419       .  S
Zr409       O416   2.438       .  S
Zr409       O417   2.369       .  S
Zr409       O418   2.382       .  S
Zr410       O429   2.442       .  S
Zr410       O422   2.433       .  S
Zr410       O423   2.435       .  S
Zr410       O416   2.405       .  S
Zr410       O417   2.386       .  S
Zr411       O413   2.439   1_565  S
Zr411       O435   2.437   1_565  S
Zr411       O437   2.486       .  S
Zr411       O415   2.385       .  S
Zr411       O418   2.402       .  S
Zr412       O438   2.436   1_565  S
Zr412       O439   2.436       .  S
Zr412       O414   2.438       .  S
Zr412       O415   2.442       .  S
Zr412       O416   2.423       .  S
O413        H450   0.990       .  S
O414        H445   0.990       .  S
O414        H459   0.989       .  S
O416        H442   0.966       .  S
O417       Zr427   2.349       .  S
O418       Zr427   2.388       .  S
O418        H443   0.965       .  S
C419       C1956   1.517   1_565  S
C420       C1966   1.464       .  S
C421       C2116   1.466       .  S
O422        H458   0.990       .  S
O423        C425   1.280       .  A
O424        C425   1.273       .  A
C425       C1976   1.477       .  S
O426       Zr427   2.438       .  S
O426        H455   0.990       .  S
Zr427       O430   2.439       .  S
Zr427       O431   2.441       .  S
Zr427       O432   2.379       .  S
O428        C433   1.294       .  A
O429        H446   0.990       .  S
O429        H461   0.990       .  S
O430        H447   0.991       .  S
O431        H451   0.990       .  S
O431        H460   0.991       .  S
O432        C433   1.274       .  A
C433       C1996   1.483       .  S
O434        H453   0.990       .  S
O434        H457   0.990       .  S
O435        H449   0.991       .  S
O435        H456   0.990       .  S
O436        C440   1.287       .  A
O437        C440   1.294       .  A
O438        H448   0.990       .  S
O439        H452   0.991       .  S
C440       C1986   1.515       .  S
Zr463       O464   2.437       .  S
Zr463       O465   2.423       .  S
Zr463       O466   2.403       .  S
Zr463       O469   2.431       .  S
Zr463       O471   2.369       .  S
Zr463       O472   2.386       .  S
Zr463       O473   2.398       .  S
Zr463       O474   2.372       .  S
O464        H520   0.990       .  S
O464        H528   0.990       .  S
O465        C485   1.284       .  A
O466        C487   1.284       .  A
O467       Zr477   2.420       .  S
O467        C486   1.281       .  A
O468       Zr476   2.428       .  S
O468        C487   1.281       .  A
O469        C486   1.290       .  A
O470       Zr478   2.551       .  S
O470        C485   1.304       .  A
O471       Zr476   2.396       .  S
O471       Zr478   2.344       .  S
O472       Zr477   2.422       .  S
O472       Zr478   2.372       .  S
O472        H507   0.966       .  S
O473       Zr476   2.411       .  S
O473       Zr493   2.380       .  S
O473        H510   0.966       .  S
O474       Zr477   2.406       .  S
O474       Zr493   2.356       .  S
Zr475       O500   2.438       .  S
Zr475       O494   2.508       .  S
Zr475       O502   2.393       .  S
Zr475       O490   2.393       .  S
Zr475       O481   2.418       .  S
Zr475       O482   2.435       .  S
Zr475       O483   2.373       .  S
Zr475       O484   2.367       .  S
Zr476       O495   2.440       .  S
Zr476       O488   2.435       .  S
Zr476       O489   2.459       .  S
Zr476       O482   2.392       .  S
Zr476       O483   2.381       .  S
Zr477       O479   2.438       .  S
Zr477       O501   2.438   1_565  S
Zr477       O503   2.529       .  S
Zr477       O481   2.377       .  S
Zr477       O484   2.349       .  S
Zr478       O504   2.436   1_565  S
Zr478       O505   2.435   1_565  S
Zr478       O480   2.436       .  S
Zr478       O481   2.452       .  S
Zr478       O482   2.448       .  S
O479        H516   0.989       .  S
O480        H511   0.991       .  S
O480        H525   0.990       .  S
O482        H508   0.966       .  S
O483       Zr493   2.367       .  S
O484       Zr493   2.393       .  S
O484        H509   0.963       .  S
C485       C1916   1.535       .  S
C486       C1926   1.479       .  S
C487       C2079   1.459       .  S
O488        H524   0.990       .  S
O489        C491   1.290       .  A
O490        C491   1.277       .  A
C491       C1949   1.487       .  S
O492       Zr493   2.435       .  S
O492        H521   0.990       .  S
Zr493       O496   2.435       .  S
Zr493       O497   2.436       .  S
Zr493       O498   2.369       .  S
O494        C499   1.298       .  A
O495        H512   0.990       .  S
O495        H527   0.990       .  S
O496        H513   0.990       .  S
O497        H517   0.990       .  S
O497        H526   0.990       .  S
O498        C499   1.273       .  A
C499       C1936   1.473       .  S
O500        H519   0.991       .  S
O500        H523   0.990       .  S
O501        H515   0.990       .  S
O501        H522   0.990       .  S
O502        C506   1.276       .  A
O503        C506   1.299       .  A
O504        H514   0.990       .  S
O505        H518   0.990   1_545  S
C506       C1989   1.501       .  S
Zr529       O530   2.451       .  S
Zr529       O531   2.454       .  S
Zr529       O532   2.448       .  S
Zr529       O535   2.459       .  S
Zr529       O537   2.382       .  S
Zr529       O538   2.391       .  S
Zr529       O539   2.415       .  S
Zr529       O540   2.282       .  S
O530        H586   0.991       .  S
O530       H2818   0.989       .  S
O531        C551   1.283       .  A
O532        C553   1.283       .  A
O533       Zr543   2.416       .  S
O533        C552   1.282       .  A
O534       Zr542   2.427       .  S
O534        C553   1.283       .  A
O535        C552   1.290       .  A
O536       Zr544   2.492       .  S
O536        C551   1.291       .  A
O537       Zr542   2.400       .  S
O537       Zr544   2.370       .  S
O538       Zr543   2.421       .  S
O538       Zr544   2.389       .  S
O538        H573   0.967       .  S
O539       Zr542   2.417       .  S
O539       Zr559   2.358       .  S
O539        H576   0.959       .  S
O540       Zr543   2.287       .  S
O540       Zr559   2.290       .  S
Zr541       O566   2.442       .  S
Zr541       O560   2.504       .  S
Zr541       O568   2.432       .  S
Zr541       O556   2.384       .  S
Zr541       O547   2.429       .  S
Zr541       O548   2.433       .  S
Zr541       O549   2.378       .  S
Zr541       O550   2.369       .  S
Zr542       O561   2.438       .  S
Zr542       O554   2.435       .  S
Zr542       O555   2.461       .  S
Zr542       O548   2.396       .  S
Zr542       O549   2.401       .  S
Zr543       O545   2.442       .  S
Zr543       O567   2.440       .  S
Zr543       O569   2.493       .  S
Zr543       O547   2.376       .  S
Zr543       O550   2.391       .  S
Zr544       O570   2.437       .  S
Zr544       O571   2.435       .  S
Zr544       O546   2.438       .  S
Zr544       O547   2.452       .  S
Zr544       O548   2.421       .  S
O545        H582   0.990       .  S
O546        H577   0.991       .  S
O546        H591   0.989       .  S
O548        H574   0.966       .  S
O549       Zr559   2.384       .  S
O550       Zr559   2.347       .  S
O550        H575   0.962       .  S
C551       C1866   1.513       .  S
C552       C4100   1.480       .  S
C553       C2179   1.469       .  S
O554        H590   0.990       .  S
O555        C557   1.289       .  A
O556        C557   1.275       .  A
C557       C1886   1.470       .  S
O558      Zr2783   2.440   1_554  S
O558        H587   0.990       .  S
Zr559       O562   2.444       .  S
Zr559      O2782   2.433       .  S
Zr559      O2787   2.438       .  S
Zr559       O564   2.394       .  S
O560        C565   1.295       .  A
O561        H578   0.990       .  S
O561        H593   0.990       .  S
O562       H2803   0.991       .  S
O563      Zr2783   2.435   1_554  S
O563        H583   0.991       .  S
O563        H592   0.989       .  S
O564        C565   1.267       .  A
C565       C1906   1.488       .  S
O566        H585   0.990       .  S
O566        H589   0.990       .  S
O567        H581   0.990       .  S
O567        H588   0.991       .  S
O568        C572   1.285       .  A
O569        C572   1.295       .  A
O570        H580   0.990       .  S
O571        H584   0.990       .  S
C572       C1896   1.493       .  S
H579       O2786   0.990       .  S
H594       O2754   0.990       .  S
Zr595       O596   2.433       .  S
Zr595       O597   2.412       .  S
Zr595       O598   2.443       .  S
Zr595       O601   2.417       .  S
Zr595       O603   2.375       .  S
Zr595       O604   2.387       .  S
Zr595       O605   2.396       .  S
Zr595       O606   2.399       .  S
O596        H652   0.990       .  S
O596        H660   0.990       .  S
O597        C617   1.282       .  A
O598        C619   1.278       .  A
O599       Zr609   2.401       .  S
O599        C618   1.280       .  A
O600       Zr608   2.408       .  S
O600        C619   1.272       .  A
O601        C618   1.283       .  A
O602       Zr610   2.573       .  S
O602       C2841   1.310   1_554  A
O603       Zr608   2.398       .  S
O603      Zr2834   2.357       .  S
O604       Zr609   2.406       .  S
O604      Zr2834   2.366       .  S
O604        H639   0.966       .  S
O605       Zr608   2.442       .  S
O605       Zr625   2.372       .  S
O605        H642   0.963       .  S
O606       Zr609   2.397       .  S
O606       Zr625   2.370       .  S
Zr607      O2856   2.440       .  S
Zr607       O626   2.508       .  S
Zr607       O634   2.450       .  S
Zr607      O2846   2.405       .  S
Zr607       O613   2.429       .  S
Zr607       O615   2.372       .  S
Zr607       O616   2.376       .  S
Zr607      O2838   2.447       .  S
Zr608       O627   2.442       .  S
Zr608      O2844   2.434       .  S
Zr608      O2845   2.430       .  S
Zr608       O615   2.387       .  S
Zr608      O2838   2.399       .  S
Zr609       O611   2.438       .  S
Zr609       O633   2.435       .  S
Zr609       O635   2.457       .  S
Zr609       O613   2.372       .  S
Zr609       O616   2.391       .  S
Zr610       O636   2.434       .  S
Zr610       O637   2.437       .  S
Zr610       O612   2.437       .  S
Zr610       O614   2.459       .  S
Zr610      O2827   2.350   1_554  S
Zr610      O2828   2.366   1_554  S
Zr610      O2837   2.456       .  S
O611        H648   0.990       .  S
O612        H643   0.991       .  S
O612        H657   0.989       .  S
O613      Zr2834   2.451       .  S
O614      Zr2831   2.440   1_554  S
O614      Zr2832   2.401   1_554  S
O614        H640   0.966       .  S
O615       Zr625   2.368       .  S
O616       Zr625   2.366       .  S
O616        H641   0.964       .  S
C617       O2826   1.305       .  A
C617       C1826   1.534       .  S
C618       C1836   1.465       .  S
C619       C2019   1.464       .  S
O620      Zr2832   2.435   1_554  S
O620        H656   0.990       .  S
O621      Zr2832   2.435       .  S
O621        C623   1.281       .  A
O622      Zr2831   2.415   1_554  S
O622        C623   1.277   1_554  A
C623       C1856   1.484       .  S
O624       Zr625   2.435       .  S
O624        H653   0.989       .  S
Zr625       O628   2.437       .  S
Zr625       O629   2.440       .  S
Zr625       O630   2.391       .  S
O626        C631   1.297       .  A
O627        H644   0.990       .  S
O627        H659   0.990       .  S
O628        H645   0.990       .  S
O629        H649   0.990       .  S
O629        H658   0.990       .  S
O630        C631   1.276       .  A
C631       C1849   1.494       .  S
O632      Zr2831   2.437   1_554  S
O632        H651   0.991       .  S
O632        H655   0.990       .  S
O633        H647   0.990       .  S
O633        H654   0.990       .  S
O634        C638   1.287       .  A
O635        C638   1.287       .  A
O636        H646   0.990       .  S
O637        H650   0.990       .  S
C638       C1899   1.484       .  S
Zr661       O662   2.440       .  S
Zr661       O663   2.420       .  S
Zr661       O664   2.378       .  S
Zr661       O667   2.377       .  S
Zr661       O669   2.389       .  S
Zr661       O670   2.399       .  S
Zr661       O671   2.393       .  S
Zr661       O672   2.397       .  S
O662        H718   0.990       .  S
O662        H726   0.990       .  S
O663        C683   1.273       .  A
O664        C685   1.275       .  A
O665       Zr675   2.508       .  S
O665        C684   1.298       .  A
O666       Zr674   2.498       .  S
O666        C685   1.295       .  A
O667        C684   1.274       .  A
O668       Zr676   2.408       .  S
O668        C683   1.269       .  A
O669       Zr674   2.376       .  S
O669       Zr676   2.385       .  S
O670       Zr675   2.383       .  S
O670       Zr676   2.368       .  S
O670        H705   0.962       .  S
O671       Zr674   2.397       .  S
O671       Zr691   2.401       .  S
O671        H708   0.966       .  S
O672       Zr675   2.405       .  S
O672       Zr691   2.411       .  S
Zr673       O698   2.444       .  S
Zr673       O692   2.438       .  S
Zr673       O700   2.406       .  S
Zr673       O688   2.412       .  S
Zr673       O679   2.402       .  S
Zr673       O680   2.408       .  S
Zr673       O681   2.381       .  S
Zr673       O682   2.381       .  S
Zr674       O693   2.434       .  S
Zr674       O686   2.434       .  S
Zr674       O687   2.453       .  S
Zr674       O680   2.414       .  S
Zr674       O681   2.405       .  S
Zr675       O677   2.434       .  S
Zr675       O699   2.436       .  S
Zr675       O701   2.477       .  S
Zr675       O679   2.415       .  S
Zr675       O682   2.412       .  S
Zr676       O702   2.437       .  S
Zr676       O703   2.437       .  S
Zr676       O678   2.438       .  S
Zr676       O679   2.395       .  S
Zr676       O680   2.368       .  S
O677        H714   0.990       .  S
O678        H709   0.990       .  S
O678        H723   0.990       .  S
O680        H706   0.964       .  S
O681       Zr691   2.371       .  S
O682       Zr691   2.368       .  S
O682        H707   0.965       .  S
C683       C1979   1.466       .  S
C684       C1939   1.493       .  S
C685        C770   1.486       .  S
O686        H722   0.990       .  S
O687        C689   1.290       .  A
O688        C689   1.283       .  A
C689       C1889   1.474       .  S
O690       Zr691   2.435       .  S
O690        H719   0.990       .  S
Zr691       O694   2.435       .  S
Zr691       O695   2.437       .  S
Zr691       O696   2.453       .  S
O692        C697   1.284       .  A
O693        H710   0.990       .  S
O693        H725   0.990       .  S
O694        H711   0.990       .  S
O695        H715   0.990       .  S
O695        H724   0.990       .  S
O696        C697   1.289       .  A
C697       C1846   1.501       .  S
O698        H717   0.990       .  S
O698        H721   0.988       .  S
O699        H713   0.989       .  S
O699        H720   0.990       .  S
O700        C704   1.282       .  A
O701        C704   1.290       .  A
O702        H712   0.990       .  S
O703        H716   0.990       .  S
C704        C751   1.484       .  S
Zr727      O2952   2.441   1_554  S
Zr727       O729   2.431   1_554  S
Zr727       O733   2.373       .  S
Zr727      O2954   2.372   1_554  S
Zr727       O735   2.389       .  S
Zr727       O736   2.398       .  S
Zr727       O737   2.396       .  S
Zr727       O738   2.397       .  S
O728      Zr2951   2.438       .  S
O728        H784   0.991       .  S
O728        H792   0.990       .  S
O729        C749   1.276       .  A
O730      Zr2951   2.391       .  S
O730        C751   1.278       .  A
O731       Zr741   2.487       .  S
O731        C750   1.293       .  A
O732      Zr2964   2.476       .  S
O732        C751   1.289       .  A
O733        C750   1.272       .  A
O734       Zr742   2.408   1_556  S
O734        C749   1.269       .  A
O735       Zr740   2.367       .  S
O735       Zr742   2.380       .  S
O736       Zr741   2.381       .  S
O736       Zr742   2.373       .  S
O736        H771   0.963       .  S
O737       Zr740   2.391       .  S
O737       Zr757   2.409       .  S
O737        H774   0.966   1_554  S
O738       Zr741   2.400       .  S
O738       Zr757   2.413       .  S
Zr739       O764   2.436       .  S
Zr739       O758   2.409       .  S
Zr739       O766   2.433       .  S
Zr739       O754   2.428       .  S
Zr739       O745   2.393       .  S
Zr739       O746   2.405       .  S
Zr739       O747   2.383       .  S
Zr739       O748   2.377       .  S
Zr740       O759   2.433   1_554  S
Zr740       O752   2.434   1_554  S
Zr740       O753   2.425       .  S
Zr740      O2956   2.489   1_554  S
Zr740       O746   2.418       .  S
Zr740       O747   2.402       .  S
Zr741       O743   2.435       .  S
Zr741       O765   2.435       .  S
Zr741       O767   2.460       .  S
Zr741       O745   2.415       .  S
Zr741       O748   2.406       .  S
Zr742       O768   2.436       .  S
Zr742       O769   2.435       .  S
Zr742       O744   2.437       .  S
Zr742       O745   2.395       .  S
Zr742       O746   2.373       .  S
O743        H780   0.990       .  S
O744        H775   0.989       .  S
O744        H789   0.990   1_554  S
O746        H772   0.965       .  S
O747       Zr757   2.365       .  S
O748       Zr757   2.364       .  S
O748        H773   0.965       .  S
C749       C1859   1.471       .  S
C750       C1909   1.484       .  S
O752        H788   0.990       .  S
O753        C755   1.283       .  A
O754        C755   1.286       .  A
C755       C1946   1.463       .  S
O756       Zr757   2.435       .  S
O756        H785   0.990       .  S
Zr757       O760   2.436       .  S
Zr757       O761   2.438       .  S
Zr757       O762   2.459       .  S
O758        C763   1.279       .  A
O759        H776   0.990   1_556  S
O759        H791   0.990       .  S
O760        H777   0.990       .  S
O761        H781   0.990       .  S
O761        H790   0.990       .  S
O762        C763   1.290       .  A
C763       C1999   1.493       .  S
O764        H783   0.990       .  S
O764        H787   0.990       .  S
O765        H779   0.990       .  S
O765        H786   0.990       .  S
O766        C770   1.290       .  A
O767        C770   1.288       .  A
O768        H778   0.990       .  S
O769        H782   0.990       .  S
Zr793       O794   2.440       .  S
Zr793       O795   2.502       .  S
Zr793       O796   2.452       .  S
Zr793       O799   2.421       .  S
Zr793       O801   2.369       .  S
Zr793       O802   2.387       .  S
Zr793       O803   2.428       .  S
Zr793       O804   2.436       .  S
O794        H850   0.990       .  S
O794        H858   0.990       .  S
O795        C815   1.296       .  A
O796        C817   1.286       .  A
O797       Zr807   2.411       .  S
O797        C816   1.274       .  A
O798       Zr806   2.476       .  S
O798        C817   1.291       .  A
O799        C816   1.273       .  A
O800       Zr808   2.360       .  S
O800        C815   1.271       .  A
O801       Zr806   2.378       .  S
O801       Zr808   2.394       .  S
O802       Zr807   2.409       .  S
O802       Zr808   2.362       .  S
O802        H837   0.963       .  S
O803       Zr806   2.394       .  S
O803       Zr823   2.463       .  S
O803        H840   0.966       .  S
O804       Zr807   2.408       .  S
O804       Zr823   2.436       .  S
Zr805       O830   2.436       .  S
Zr805       O824   2.401       .  S
Zr805       O832   2.413       .  S
Zr805       O820   2.401   1_554  S
Zr805       O811   2.380       .  S
Zr805       O812   2.387       .  S
Zr805       O813   2.378       .  S
Zr805       O814   2.374       .  S
Zr806       O825   2.436       .  S
Zr806       O818   2.435   1_554  S
Zr806       O819   2.408   1_554  S
Zr806       O812   2.409       .  S
Zr806       O813   2.415       .  S
Zr807       O809   2.436       .  S
Zr807       O831   2.436       .  S
Zr807       O833   2.421       .  S
Zr807       O811   2.408       .  S
Zr807       O814   2.388       .  S
Zr808       O834   2.436       .  S
Zr808       O835   2.435       .  S
Zr808       O810   2.436   1_554  S
Zr808       O811   2.376       .  S
Zr808       O812   2.362       .  S
O809        H846   0.990       .  S
O810        H841   0.990       .  S
O810        H855   0.990       .  S
O812        H838   0.966   1_554  S
O813       Zr823   2.357       .  S
O814       Zr823   2.338       .  S
O814        H839   0.963       .  S
C815       C1816   1.483       .  S
C816       C1799   1.468       .  S
C817       C1806   1.512       .  S
O818        H854   0.990       .  S
O819        C821   1.282       .  A
O820        C821   1.281       .  A
C821       C1786   1.471       .  S
O822       Zr823   2.436       .  S
O822        H851   0.990       .  S
Zr823       O826   2.436       .  S
Zr823       O827   2.437       .  S
Zr823       O828   2.567       .  S
O824        C829   1.278       .  A
O825        H842   0.990       .  S
O825        H857   0.991   1_554  S
O826        H843   0.990       .  S
O827        H847   0.990       .  S
O827        H856   0.990       .  S
O828        C829   1.308       .  A
C829       C2169   1.529       .  S
O830        H849   0.991       .  S
O830        H853   0.989       .  S
O831        H845   0.990       .  S
O831        H852   0.990       .  S
O832        C836   1.286       .  A
O833        C836   1.280       .  A
O834        H844   0.990       .  S
O835        H848   0.990       .  S
C836       C1879   1.463       .  S
Zr859      O3084   2.441       .  S
Zr859       O861   2.489   1_556  S
Zr859       O862   2.447   1_556  S
Zr859      O3089   2.402       .  S
Zr859       O867   2.373   1_556  S
Zr859       O868   2.390   1_556  S
Zr859       O869   2.428       .  S
Zr859       O870   2.430       .  S
O860      Zr3083   2.439       .  S
O860        H916   0.990       .  S
O860        H924   0.991       .  S
O861        C881   1.293       .  A
O862        C883   1.285       .  A
O863       Zr873   2.409       .  S
O863       C3106   1.274       .  A
O864       Zr872   2.485       .  S
O864        C883   1.293       .  A
O865      Zr3083   2.405       .  S
O865        C882   1.275       .  A
O866       Zr874   2.379       .  S
O866        C881   1.274       .  A
O867       Zr872   2.387       .  S
O867       Zr874   2.375       .  S
O868       Zr873   2.403   1_554  S
O868       Zr874   2.373       .  S
O868        H903   0.965       .  S
O869       Zr872   2.398   1_556  S
O869      Zr3113   2.460       .  S
O869        H906   0.966       .  S
O870       Zr873   2.398       .  S
O870      Zr3113   2.428       .  S
Zr871       O896   2.443       .  S
Zr871       O890   2.437       .  S
Zr871       O898   2.421       .  S
Zr871       O886   2.414       .  S
Zr871       O877   2.382       .  S
Zr871       O878   2.421       .  S
Zr871       O879   2.382       .  S
Zr871       O880   2.381       .  S
Zr872       O891   2.435       .  S
Zr872       O884   2.436       .  S
Zr872       O885   2.441       .  S
Zr872       O878   2.411       .  S
Zr872       O879   2.422       .  S
Zr873       O897   2.442       .  S
Zr873      O3099   2.436       .  S
Zr873       O899   2.432   1_556  S
Zr873       O877   2.385   1_556  S
Zr873       O880   2.382   1_556  S
Zr874       O900   2.434       .  S
Zr874       O901   2.436       .  S
Zr874       O876   2.437       .  S
Zr874       O877   2.362       .  S
Zr874       O878   2.365       .  S
O875      Zr3097   2.434       .  S
O875        H912   0.990       .  S
O876        H907   0.990       .  S
O876        H921   0.990       .  S
O878        H904   0.963       .  S
O879      Zr3113   2.376   1_554  S
O880      Zr3113   2.379   1_554  S
O880        H905   0.964   1_554  S
C881       C1769   1.473       .  S
C882       O3087   1.281       .  A
C882       C1776   1.475       .  S
C883       C1809   1.519       .  S
O884        H920   0.991       .  S
O885        C887   1.286       .  A
O886        C887   1.282       .  A
C887       C1756   1.471       .  S
O888       Zr889   2.434       .  S
O888        H917   0.991       .  S
Zr889       O892   2.435       .  S
Zr889       O893   2.436       .  S
Zr889       O894   2.516       .  S
Zr889      O3093   2.445       .  S
Zr889      O3094   2.423       .  S
Zr889      O3103   2.372       .  S
Zr889      O3104   2.362       .  S
O890        C895   1.283       .  A
O891        H908   0.990       .  S
O891        H923   0.991       .  S
O892        H909   0.991       .  S
O893        H913   0.990       .  S
O893        H922   0.989       .  S
O894       C3119   1.298       .  A
C895       O3118   1.297   1_554  A
C895       C2136   1.519   1_554  S
O896        H915   0.990       .  S
O896        H919   0.990       .  S
O897        H911   0.990       .  S
O897        H918   0.991       .  S
O898        C902   1.282       .  A
O899        C902   1.281       .  A
O900        H910   0.990       .  S
O901        H914   0.990       .  S
C902       C1969   1.450       .  S
Zr925       O926   2.439       .  S
Zr925       O927   2.510       .  S
Zr925       O928   2.416       .  S
Zr925       O931   2.390       .  S
Zr925       O933   2.361       .  S
Zr925       O934   2.381       .  S
Zr925       O935   2.419       .  S
Zr925       O936   2.429       .  S
O926        H982   0.990       .  S
O926        H990   0.991       .  S
O927        C947   1.299       .  A
O928        C949   1.280       .  A
O929       Zr939   2.461       .  S
O929        C948   1.291       .  A
O930       Zr938   2.487       .  S
O930        C949   1.293       .  A
O931        C948   1.278       .  A
O932       Zr940   2.365       .  S
O932        C947   1.272       .  A
O933       Zr938   2.387       .  S
O933       Zr940   2.402       .  S
O934       Zr939   2.385       .  S
O934       Zr940   2.341       .  S
O934        H969   0.965       .  S
O935       Zr938   2.375       .  S
O935       Zr955   2.434       .  S
O935        H972   0.966       .  S
O936       Zr939   2.395       .  S
O936       Zr955   2.444       .  S
Zr937       O962   2.437       .  S
Zr937       O956   2.431       .  S
Zr937       O964   2.427       .  S
Zr937       O952   2.450       .  S
Zr937       O943   2.406       .  S
Zr937       O944   2.395       .  S
Zr937       O945   2.392       .  S
Zr937       O946   2.379       .  S
Zr938       O957   2.434   1_655  S
Zr938       O950   2.431       .  S
Zr938       O951   2.414       .  S
Zr938       O944   2.408       .  S
Zr938       O945   2.414       .  S
Zr939       O941   2.434       .  S
Zr939       O963   2.436       .  S
Zr939       O965   2.428       .  S
Zr939       O943   2.404       .  S
Zr939       O946   2.399       .  S
Zr940       O966   2.436       .  S
Zr940       O967   2.437       .  S
Zr940       O942   2.438       .  S
Zr940       O943   2.387       .  S
Zr940       O944   2.318       .  S
O941        H978   0.990       .  S
O942        H973   0.990       .  S
O942        H987   0.990       .  S
O944        H970   0.960       .  S
O945       Zr955   2.379       .  S
O946       Zr955   2.330       .  S
O946        H971   0.962       .  S
C947       C1746   1.494       .  S
C948       C1729   1.475       .  S
C949       C1736   1.499       .  S
O950        H986   0.990       .  S
O951        C953   1.284       .  A
O952        C953   1.290       .  A
C953       C1716   1.470       .  S
O954       Zr955   2.435       .  S
O954        H983   0.990       .  S
Zr955       O958   2.434   1_655  S
Zr955       O959   2.437       .  S
Zr955       O960   2.536       .  S
O956        C961   1.286       .  A
O957        H974   0.990       .  S
O957        H989   0.990       .  S
O958        H975   0.990       .  S
O959        H979   0.991       .  S
O959        H988   0.989       .  S
O960        C961   1.300       .  A
C961       C2056   1.531       .  S
O962        H981   0.989       .  S
O962        H985   0.990       .  S
O963        H977   0.990       .  S
O963        H984   0.990       .  S
O964        C968   1.285       .  A
O965        C968   1.284       .  A
O966        H976   0.990       .  S
O967        H980   0.991       .  S
C968       C1929   1.469       .  S
Zr991       O992   2.442       .  S
Zr991       O993   2.517       .  S
Zr991       O994   2.406       .  S
Zr991       O997   2.367       .  S
Zr991       O999   2.363       .  S
Zr991      O1000   2.371       .  S
Zr991      O1001   2.420       .  S
Zr991      O1002   2.429       .  S
O992       H1048   0.991       .  S
O992       H1056   0.990       .  S
O993       C1013   1.300       .  A
O994       C1015   1.277       .  A
O995      Zr1005   2.447       .  S
O995       C1014   1.285       .  A
O996      Zr1004   2.491       .  S
O996       C1015   1.293       .  A
O997       C1014   1.273       .  A
O998      Zr1006   2.374       .  S
O998       C1013   1.272       .  A
O999      Zr1004   2.396       .  S
O999      Zr1006   2.395       .  S
O1000     Zr1005   2.382       .  S
O1000     Zr1006   2.352       .  S
O1000      H1035   0.966       .  S
O1001     Zr1004   2.385       .  S
O1001     Zr1021   2.449       .  S
O1001      H1038   0.966       .  S
O1002     Zr1005   2.384       .  S
O1002     Zr1021   2.437       .  S
Zr1003     O1028   2.446       .  S
Zr1003     O1022   2.439       .  S
Zr1003     O1030   2.399       .  S
Zr1003     O1018   2.432       .  S
Zr1003     O1009   2.404       .  S
Zr1003     O1010   2.405       .  S
Zr1003     O1011   2.381       .  S
Zr1003     O1012   2.381       .  S
Zr1004     O1023   2.434   1_655  S
Zr1004     O1016   2.434   1_655  S
Zr1004     O1017   2.429   1_655  S
Zr1004     O1010   2.413       .  S
Zr1004     O1011   2.425       .  S
Zr1005     O1007   2.433       .  S
Zr1005     O1029   2.439       .  S
Zr1005     O1031   2.409       .  S
Zr1005     O1009   2.403       .  S
Zr1005     O1012   2.396       .  S
Zr1006     O1032   2.436       .  S
Zr1006     O1033   2.435       .  S
Zr1006     O1008   2.437       .  S
Zr1006     O1009   2.378       .  S
Zr1006     O1010   2.337       .  S
O1007      H1044   0.990       .  S
O1008      H1039   0.990       .  S
O1008      H1053   0.990       .  S
O1010      H1036   0.960       .  S
O1011     Zr1021   2.381       .  S
O1012     Zr1021   2.363       .  S
O1012      H1037   0.965       .  S
C1013      C1696   1.508       .  S
C1014      C1709   1.466       .  S
C1015      C1739   1.490       .  S
O1016      H1052   0.991       .  S
O1017      C1019   1.285       .  A
O1018      C1019   1.285   1_655  A
C1019      C1686   1.468       .  S
O1020     Zr1021   2.436       .  S
O1020      H1049   0.990       .  S
Zr1021     O1024   2.436   1_655  S
Zr1021     O1025   2.436       .  S
Zr1021     O1026   2.534       .  S
O1022      C1027   1.281       .  A
O1023      H1040   0.990       .  S
O1023      H1055   0.990       .  S
O1024      H1041   0.990       .  S
O1025      H1045   0.990       .  S
O1025      H1054   0.989       .  S
O1026      C1027   1.301       .  A
C1027      C2009   1.523       .  S
O1028      H1047   0.990       .  S
O1028      H1051   0.990       .  S
O1029      H1043   0.990       .  S
O1029      H1050   0.990       .  S
O1030      C1034   1.277       .  A
O1031      C1034   1.279       .  A
O1032      H1042   0.991       .  S
O1033      H1046   0.990       .  S
C1034      C1839   1.446       .  S
Zr1057     O3282   2.435       .  S
Zr1057     O1063   2.451       .  S
Zr1057     O3283   2.399       .  S
Zr1057     O3284   2.435       .  S
Zr1057     O1065   2.383       .  S
Zr1057     O1066   2.385       .  S
Zr1057     O1067   2.398       .  S
Zr1057     O1068   2.378       .  S
O1058     Zr3281   2.435   1_554  S
O1058      H1114   0.989       .  S
O1058      H1122   0.990       .  S
O1059     Zr3281   2.389       .  S
O1059      C3303   1.275       .  A
O1060     Zr3281   2.408   1_554  S
O1060      C1081   1.281       .  A
O1061     Zr1071   2.395       .  S
O1061      C1080   1.276       .  A
O1062     Zr3294   2.471   1_554  S
O1062      C1081   1.292       .  A
O1063      C1080   1.289       .  A
O1064     Zr1072   2.489       .  S
O1064      C1079   1.294       .  A
O1065     Zr1070   2.412       .  S
O1065     Zr1072   2.363       .  S
O1066     Zr1071   2.401       .  S
O1066     Zr1072   2.370       .  S
O1066      H1101   0.966       .  S
O1067     Zr1070   2.421       .  S
O1067     Zr1087   2.391       .  S
O1067      H3328   0.966       .  S
O1068     Zr1071   2.401       .  S
O1068     Zr1087   2.360       .  S
Zr1069     O1094   2.444       .  S
Zr1069     O1088   2.454       .  S
Zr1069     O1096   2.406       .  S
Zr1069     O1084   2.376       .  S
Zr1069     O1075   2.400       .  S
Zr1069     O1076   2.412       .  S
Zr1069     O1077   2.364       .  S
Zr1069     O1078   2.366       .  S
Zr1070     O1089   2.436       .  S
Zr1070     O1082   2.434       .  S
Zr1070     O1083   2.511       .  S
Zr1070     O3286   2.456       .  S
Zr1070     O1076   2.401       .  S
Zr1070     O1077   2.373       .  S
Zr1071     O1073   2.435       .  S
Zr1071     O1095   2.438       .  S
Zr1071     O1097   2.451       .  S
Zr1071     O1075   2.378       .  S
Zr1071     O1078   2.393       .  S
Zr1072     O1098   2.436       .  S
Zr1072     O1099   2.435       .  S
Zr1072     O1074   2.436       .  S
Zr1072     O1075   2.418       .  S
Zr1072     O1076   2.424       .  S
O1073      H1110   0.991       .  S
O1074      H1105   0.990       .  S
O1074      H1119   0.990       .  S
O1076      H1102   0.966       .  S
O1077     Zr1087   2.376       .  S
O1078     Zr1087   2.391       .  S
O1078      H1103   0.966       .  S
C1079      O3283   1.277       .  A
C1079      C4043   1.499       .  S
C1080      C1779   1.453       .  S
C1081      C1147   1.473       .  S
O1082      H3342   0.990       .  S
O1083      C1085   1.300       .  A
O1084      C1085   1.273       .  A
C1085      C1699   1.501       .  S
O1086     Zr1087   2.436       .  S
O1086      H1115   0.990       .  S
Zr1087     O1090   2.435       .  S
Zr1087     O1091   2.437       .  S
Zr1087     O1092   2.385       .  S
O1088      C1093   1.288       .  A
O1089      H3330   0.990       .  S
O1089      H3345   0.990       .  S
O1090      H1107   0.990       .  S
O1091      H1111   0.990       .  S
O1091      H1120   0.990       .  S
O1092      C1093   1.273       .  A
C1093      C1726   1.467       .  S
O1094      H1113   0.991       .  S
O1094      H1117   0.991       .  S
O1095      H1109   0.990       .  S
O1095      H1116   0.990       .  S
O1096      C1100   1.283       .  A
O1097      C1100   1.283       .  A
O1098      H1108   0.990       .  S
O1099      H1112   0.991       .  S
C1100      C1166   1.474       .  S
H1104      O3291   0.966       .  S
H1106      O3313   0.990   1_554  S
H1118      O3306   0.990       .  S
H1121      O3313   0.990       .  S
Zr1123     O1124   2.443       .  S
Zr1123     O1125   2.393       .  S
Zr1123     O1126   2.437       .  S
Zr1123     O1129   2.436       .  S
Zr1123     O1131   2.376       .  S
Zr1123     O1132   2.391       .  S
Zr1123     O1133   2.395       .  S
Zr1123     O1134   2.382       .  S
O1124      H1180   0.989       .  S
O1124      H1188   0.989       .  S
O1125      C1145   1.276       .  A
O1126      C1147   1.287       .  A
O1127     Zr1137   2.412       .  S
O1127      C1146   1.281       .  A
O1128     Zr1136   2.440       .  S
O1128      C1147   1.285       .  A
O1129      C1146   1.287       .  A
O1130     Zr1138   2.484       .  S
O1130      C1145   1.293       .  A
O1131     Zr1136   2.409       .  S
O1131     Zr1138   2.361       .  S
O1132     Zr1137   2.408       .  S
O1132     Zr1138   2.368       .  S
O1132      H1167   0.966       .  S
O1133     Zr1136   2.423       .  S
O1133     Zr1153   2.393       .  S
O1133      H1170   0.966       .  S
O1134     Zr1137   2.407       .  S
O1134     Zr1153   2.355       .  S
Zr1135     O1160   2.443       .  S
Zr1135     O1154   2.436       .  S
Zr1135     O1162   2.371       .  S
Zr1135     O1150   2.366       .  S
Zr1135     O1141   2.395       .  S
Zr1135     O1142   2.399       .  S
Zr1135     O1143   2.368       .  S
Zr1135     O1144   2.366       .  S
Zr1136     O1155   2.435       .  S
Zr1136     O1148   2.435       .  S
Zr1136     O1149   2.511       .  S
Zr1136     O1142   2.396       .  S
Zr1136     O1143   2.370       .  S
Zr1137     O1139   2.436       .  S
Zr1137     O1161   2.434       .  S
Zr1137     O1163   2.484       .  S
Zr1137     O1141   2.383       .  S
Zr1137     O1144   2.374       .  S
Zr1138     O1164   2.435       .  S
Zr1138     O1165   2.435       .  S
Zr1138     O1140   2.436       .  S
Zr1138     O1141   2.414       .  S
Zr1138     O1142   2.427       .  S
O1139      H1176   0.990       .  S
O1140      H1171   0.991       .  S
O1140      H1185   0.990       .  S
O1142      H1168   0.967       .  S
O1143     Zr1153   2.386       .  S
O1144     Zr1153   2.381       .  S
O1144      H1169   0.966       .  S
C1145      C1766   1.491       .  S
C1146      C1796   1.463       .  S
O1148      H1184   0.990       .  S
O1149      C1151   1.299       .  A
O1150      C1151   1.271       .  A
C1151      C1749   1.497       .  S
O1152     Zr1153   2.436       .  S
O1152      H1181   0.989       .  S
Zr1153     O1156   2.435       .  S
Zr1153     O1157   2.439       .  S
Zr1153     O1158   2.380       .  S
O1154      C1159   1.284       .  A
O1155      H1172   0.990       .  S
O1155      H1187   0.990       .  S
O1156      H1173   0.989       .  S
O1157      H1177   0.990       .  S
O1157      H1186   0.990       .  S
O1158      C1159   1.271       .  A
C1159      C1706   1.454       .  S
O1160      H1179   0.991       .  S
O1160      H1183   0.991       .  S
O1161      H1175   0.990       .  S
O1161      H1182   0.990       .  S
O1162      C1166   1.275       .  A
O1163      C1166   1.292       .  A
O1164      H1174   0.990       .  S
O1165      H1178   0.990       .  S
Zr1189     O1190   2.443       .  S
Zr1189     O1191   2.431       .  S
Zr1189     O1192   2.433       .  S
Zr1189     O1195   2.447       .  S
Zr1189     O1197   2.381       .  S
Zr1189     O1198   2.398       .  S
Zr1189     O1199   2.418       .  S
Zr1189     O1200   2.368       .  S
O1190      H1246   0.991       .  S
O1190      H1254   0.991       .  S
O1191      C1211   1.279       .  A
O1192      C1213   1.283       .  A
O1193     Zr1203   2.434       .  S
O1193      C1212   1.286       .  A
O1194     Zr1202   2.421       .  S
O1194      C1213   1.280       .  A
O1195      C1212   1.289       .  A
O1196     Zr1204   2.508       .  S
O1196      C1211   1.295       .  A
O1197     Zr1202   2.397       .  S
O1197     Zr1204   2.372       .  S
O1198     Zr1203   2.427       .  S
O1198     Zr1204   2.383       .  S
O1198      H1233   0.966       .  S
O1199     Zr1202   2.418       .  S
O1199     Zr1219   2.383       .  S
O1199      H1236   0.963       .  S
O1200     Zr1203   2.369       .  S
O1200     Zr1219   2.334       .  S
Zr1201     O1226   2.440       .  S
Zr1201     O1220   2.508       .  S
Zr1201     O1228   2.450       .  S
Zr1201     O1216   2.402       .  S
Zr1201     O1207   2.424       .  S
Zr1201     O1208   2.442       .  S
Zr1201     O1209   2.372       .  S
Zr1201     O1210   2.376       .  S
Zr1202     O1221   2.443       .  S
Zr1202     O1214   2.433       .  S
Zr1202     O1215   2.450       .  S
Zr1202     O1208   2.399       .  S
Zr1202     O1209   2.379       .  S
Zr1203     O1205   2.438   1_545  S
Zr1203     O1227   2.437   1_545  S
Zr1203     O1229   2.493       .  S
Zr1203     O1207   2.374       .  S
Zr1203     O1210   2.397       .  S
Zr1204     O1230   2.438   1_545  S
Zr1204     O1231   2.438       .  S
Zr1204     O1206   2.437       .  S
Zr1204     O1207   2.447       .  S
Zr1204     O1208   2.430       .  S
O1205      H1242   0.990       .  S
O1206      H1237   0.990       .  S
O1206      H1251   0.989       .  S
O1208      H1234   0.966       .  S
O1209     Zr1219   2.359       .  S
O1210     Zr1219   2.389       .  S
O1210      H1235   0.964       .  S
C1211      C1959   1.510       .  S
C1212      C2126   1.468   1_545  S
C1213      C1759   1.462       .  S
O1214      H1250   0.990       .  S
O1215      C1217   1.284       .  A
O1216      C1217   1.272       .  A
C1217      C1659   1.483       .  S
O1218     Zr1219   2.438       .  S
O1218      H1247   0.989       .  S
Zr1219     O1222   2.436       .  S
Zr1219     O1223   2.440       .  S
Zr1219     O1224   2.375       .  S
O1220      C1225   1.297       .  A
O1221      H1238   0.990       .  S
O1221      H1253   0.991       .  S
O1222      H1239   0.991       .  S
O1223      H1243   0.990       .  S
O1223      H1252   0.990       .  S
O1224      C1225   1.274       .  A
C1225      C1676   1.486       .  S
O1226      H1245   0.991       .  S
O1226      H1249   0.990       .  S
O1227      H1241   0.990       .  S
O1227      H1248   0.990       .  S
O1228      C1232   1.288       .  A
O1229      C1232   1.295       .  A
O1230      H1240   0.991   1_565  S
O1231      H1244   0.990       .  S
C1232      C1666   1.519       .  S
Zr1255     O1256   2.432       .  S
Zr1255     O1257   2.381       .  S
Zr1255     O1258   2.435       .  S
Zr1255     O1261   2.426       .  S
Zr1255     O1263   2.363       .  S
Zr1255     O1264   2.396       .  S
Zr1255     O1265   2.391       .  S
Zr1255     O1266   2.409       .  S
O1256      H1312   0.990       .  S
O1256      H1320   0.990       .  S
O1257      C1277   1.277       .  A
O1258      C1279   1.291       .  A
O1259     Zr1269   2.422       .  S
O1259      C1278   1.273       .  A
O1260     Zr1268   2.409       .  S
O1260      C1279   1.278       .  A
O1261      C1278   1.277       .  A
O1262     Zr1270   2.602       .  S
O1262      C1277   1.316       .  A
O1263     Zr1268   2.389       .  S
O1263     Zr1270   2.331       .  S
O1264     Zr1269   2.405       .  S
O1264     Zr1270   2.321       .  S
O1264      H1299   0.939       .  S
O1265     Zr1268   2.413       .  S
O1265     Zr1285   2.387       .  S
O1265      H1302   0.967       .  S
O1266     Zr1269   2.429       .  S
O1266     Zr1285   2.367       .  S
Zr1267     O1292   2.439       .  S
Zr1267     O1286   2.493       .  S
Zr1267     O1294   2.401       .  S
Zr1267     O1282   2.388       .  S
Zr1267     O1273   2.417       .  S
Zr1267     O1274   2.428       .  S
Zr1267     O1275   2.372       .  S
Zr1267     O1276   2.370       .  S
Zr1268     O1287   2.436       .  S
Zr1268     O1280   2.435       .  S
Zr1268     O1281   2.439       .  S
Zr1268     O1274   2.389       .  S
Zr1268     O1275   2.374       .  S
Zr1269     O1271   2.439       .  S
Zr1269     O1293   2.437   1_545  S
Zr1269     O1295   2.523       .  S
Zr1269     O1273   2.392       .  S
Zr1269     O1276   2.353       .  S
Zr1270     O1296   2.438   1_545  S
Zr1270     O1297   2.435   1_545  S
Zr1270     O1272   2.436       .  S
Zr1270     O1273   2.465       .  S
Zr1270     O1274   2.445       .  S
O1271      H1308   0.989       .  S
O1272      H1303   0.990       .  S
O1272      H1317   0.990       .  S
O1274      H1300   0.966       .  S
O1275     Zr1285   2.381       .  S
O1276     Zr1285   2.395       .  S
O1276      H1301   0.964       .  S
C1277      C1919   1.543   1_545  S
C1278      C2069   1.472   1_545  S
C1279      C1719   1.470       .  S
O1280      H1316   0.990       .  S
O1281      C1283   1.285       .  A
O1282      C1283   1.276       .  A
C1283      C1649   1.480       .  S
O1284     Zr1285   2.437       .  S
O1284      H1313   0.990       .  S
Zr1285     O1288   2.435       .  S
Zr1285     O1289   2.436       .  S
Zr1285     O1290   2.369       .  S
O1286      C1291   1.295       .  A
O1287      H1304   0.990       .  S
O1287      H1319   0.990       .  S
O1288      H1305   0.990       .  S
O1289      H1309   0.991       .  S
O1289      H1318   0.990       .  S
O1290      C1291   1.274       .  A
C1291      C1639   1.472       .  S
O1292      H1311   0.990       .  S
O1292      H1315   0.991       .  S
O1293      H1307   0.990       .  S
O1293      H1314   0.989       .  S
O1294      C1298   1.277       .  A
O1295      C1298   1.300       .  A
O1296      H1306   0.990       .  S
O1297      H1310   0.990   1_565  S
C1298      C1669   1.501       .  S
Zr1321     O1322   2.437       .  S
Zr1321     O1323   2.402       .  S
Zr1321     O1324   2.420       .  S
Zr1321     O1327   2.414       .  S
Zr1321     O1329   2.372       .  S
Zr1321     O1330   2.389       .  S
Zr1321     O1331   2.402       .  S
Zr1321     O1332   2.394       .  S
O1322      H1378   0.990       .  S
O1322      H3610   0.989       .  S
O1323      C1343   1.275       .  A
O1324      C1345   1.285       .  A
O1325     Zr1335   2.398       .  S
O1325      C1344   1.275       .  A
O1326     Zr1334   2.408       .  S
O1326      C1345   1.281       .  A
O1327      C1344   1.275       .  A
O1328     Zr1336   2.536       .  S
O1328      C1343   1.302       .  A
O1329     Zr1334   2.384       .  S
O1329     Zr1336   2.339       .  S
O1330     Zr1335   2.418       .  S
O1330     Zr1336   2.356       .  S
O1330      H1365   0.966       .  S
O1331     Zr1334   2.407       .  S
O1331     Zr1351   2.380       .  S
O1331      H1368   0.966       .  S
O1332     Zr1335   2.413       .  S
O1332     Zr1351   2.373       .  S
Zr1333     O1358   2.440       .  S
Zr1333     O1352   2.483       .  S
Zr1333     O1360   2.437       .  S
Zr1333     O1348   2.384       .  S
Zr1333     O1339   2.421       .  S
Zr1333     O1340   2.429       .  S
Zr1333     O1341   2.373       .  S
Zr1333     O1342   2.362       .  S
Zr1334     O1353   2.436       .  S
Zr1334     O1346   2.436       .  S
Zr1334     O1347   2.441       .  S
Zr1334     O1340   2.394       .  S
Zr1334     O1341   2.384       .  S
Zr1335     O1337   2.439       .  S
Zr1335     O1359   2.437       .  S
Zr1335     O1361   2.465       .  S
Zr1335     O1339   2.384       .  S
Zr1335     O1342   2.392       .  S
Zr1336     O1362   2.436       .  S
Zr1336     O1363   2.435       .  S
Zr1336     O1338   2.437       .  S
Zr1336     O1339   2.462       .  S
Zr1336     O1340   2.399       .  S
O1337      H1374   0.989       .  S
O1338      H1369   0.990       .  S
O1338      H1383   0.990       .  S
O1340      H1366   0.964       .  S
O1341     Zr1351   2.387       .  S
O1342     Zr1351   2.371       .  S
O1342      H1367   0.964       .  S
C1343      C1869   1.509       .  S
C1344      C4413   1.443       .  S
C1345      C1789   1.476       .  S
O1346      H1382   0.990       .  S
O1347      C1349   1.284       .  A
O1348      C1349   1.276       .  A
C1349      C1606   1.452       .  S
O1350     Zr3575   2.434   1_554  S
O1350      H1379   0.989       .  S
Zr1351     O1354   2.436       .  S
Zr1351     O3574   2.435       .  S
Zr1351     O3579   2.442       .  S
Zr1351     O1356   2.390       .  S
O1352      C1357   1.295       .  A
O1353      H1370   0.990       .  S
O1353      H1385   0.990       .  S
O1354      H3595   0.990       .  S
O1355     Zr3575   2.439   1_554  S
O1355      H1375   0.990       .  S
O1355      H1384   0.989       .  S
O1356      C1357   1.275       .  A
C1357      C1626   1.498       .  S
O1358      H1377   0.990       .  S
O1358      H1381   0.991       .  S
O1359      H1373   0.990       .  S
O1359      H1380   0.990       .  S
O1360      C1364   1.284       .  A
O1361      C1364   1.288       .  A
O1362      H1372   0.990       .  S
O1363      H1376   0.990       .  S
C1364      C1619   1.483       .  S
H1371      O3578   0.990       .  S
H1386      O3546   0.990       .  S
Zr1387     O1388   2.438       .  S
Zr1387     O1389   2.415       .  S
Zr1387     O1390   2.451       .  S
Zr1387     O1393   2.439       .  S
Zr1387     O1395   2.380       .  S
Zr1387     O1396   2.398       .  S
Zr1387     O1397   2.407       .  S
Zr1387     O1398   2.275       .  S
O1388      H1444   0.990       .  S
O1388      H1452   0.988       .  S
O1389      C1409   1.279       .  A
O1390      C1411   1.277       .  A
O1391     Zr1401   2.435       .  S
O1391      C1410   1.287       .  A
O1392     Zr1400   2.414       .  S
O1392      C1411   1.272       .  A
O1393      C1410   1.287       .  A
O1394     Zr1402   2.552       .  S
O1394      C3633   1.303       .  A
O1395     Zr1400   2.416       .  S
O1395     Zr3626   2.372       .  S
O1396     Zr1401   2.425       .  S
O1396     Zr3626   2.381       .  S
O1396      H1431   0.967       .  S
O1397     Zr1400   2.441       .  S
O1397     Zr1417   2.374       .  S
O1397      H1434   0.958       .  S
O1398     Zr1401   2.269       .  S
O1398     Zr1417   2.267       .  S
Zr1399     O3648   2.437       .  S
Zr1399     O1418   2.522       .  S
Zr1399     O1426   2.428       .  S
Zr1399     O3638   2.416       .  S
Zr1399     O1405   2.443       .  S
Zr1399     O1407   2.372       .  S
Zr1399     O1408   2.380       .  S
Zr1399     O3630   2.448       .  S
Zr1400     O1419   2.444       .  S
Zr1400     O3636   2.437       .  S
Zr1400     O3637   2.453       .  S
Zr1400     O1407   2.390       .  S
Zr1400     O3630   2.399       .  S
Zr1401     O1403   2.441       .  S
Zr1401     O1425   2.441       .  S
Zr1401     O1427   2.481       .  S
Zr1401     O1405   2.381       .  S
Zr1401     O1408   2.397       .  S
Zr1402     O1428   2.435       .  S
Zr1402     O1429   2.437       .  S
Zr1402     O1404   2.439       .  S
Zr1402     O1406   2.465       .  S
Zr1402     O3619   2.375       .  S
Zr1402     O3620   2.380   1_554  S
Zr1402     O3629   2.458       .  S
O1403      H1440   0.990       .  S
O1404      H1435   0.991       .  S
O1404      H1449   0.990       .  S
O1405     Zr3626   2.457       .  S
O1406     Zr3623   2.447       .  S
O1406     Zr3624   2.397       .  S
O1406      H1432   0.967       .  S
O1407     Zr1417   2.363       .  S
O1408     Zr1417   2.380       .  S
O1408      H1433   0.966       .  S
C1409      O3618   1.303       .  A
C1409      C1829   1.528       .  S
C1410      C2026   1.475       .  S
C1411      C1689   1.470       .  S
O1412     Zr3624   2.438       .  S
O1412      H1448   0.990       .  S
O1413     Zr3624   2.451       .  S
O1413      C1415   1.286       .  A
O1414     Zr3623   2.415       .  S
O1414      C1415   1.277       .  A
C1415      C1596   1.490       .  S
O1416     Zr1417   2.437       .  S
O1416      H1445   0.990       .  S
Zr1417     O1420   2.442       .  S
Zr1417     O1421   2.439       .  S
Zr1417     O1422   2.386       .  S
O1418      C1423   1.299       .  A
O1419      H1436   0.990       .  S
O1419      H1451   0.991       .  S
O1420      H1437   0.991       .  S
O1421      H1441   0.990       .  S
O1421      H1450   0.989       .  S
O1422      C1423   1.275       .  A
C1423      C1589   1.502       .  S
O1424     Zr3623   2.437       .  S
O1424      H1443   0.990       .  S
O1424      H1447   0.990       .  S
O1425      H1439   0.990       .  S
O1425      H1446   0.991       .  S
O1426      C1430   1.284       .  A
O1427      C1430   1.292       .  A
O1428      H1438   0.990       .  S
O1429      H1442   0.990       .  S
C1430      C1616   1.500       .  S
Zr1453     O1454   2.441       .  S
Zr1453     O1455   2.443       .  S
Zr1453     O1456   2.389       .  S
Zr1453     O1459   2.380       .  S
Zr1453     O1461   2.385       .  S
Zr1453     O1462   2.400       .  S
Zr1453     O1463   2.402       .  S
Zr1453     O1464   2.405       .  S
O1454      H1510   0.990       .  S
O1454      H1518   0.990       .  S
O1455      C1475   1.276       .  A
O1456      C1477   1.278       .  A
O1457     Zr1467   2.491       .  S
O1457      C1476   1.294       .  A
O1458     Zr1466   2.478       .  S
O1458      C1477   1.290       .  A
O1459      C1476   1.273       .  A
O1460     Zr1468   2.399       .  S
O1460      C1475   1.265       .  A
O1461     Zr1466   2.381       .  S
O1461     Zr1468   2.388       .  S
O1462     Zr1467   2.391       .  S
O1462     Zr1468   2.368       .  S
O1462      H1497   0.963       .  S
O1463     Zr1466   2.398       .  S
O1463     Zr1483   2.412       .  S
O1463      H1500   0.966       .  S
O1464     Zr1467   2.401       .  S
O1464     Zr1483   2.414       .  S
Zr1465     O1490   2.437       .  S
Zr1465     O1484   2.443       .  S
Zr1465     O1492   2.400       .  S
Zr1465     O1480   2.394       .  S
Zr1465     O1471   2.399       .  S
Zr1465     O1472   2.398       .  S
Zr1465     O1473   2.381       .  S
Zr1465     O1474   2.376       .  S
Zr1466     O1485   2.434       .  S
Zr1466     O1478   2.433       .  S
Zr1466     O1479   2.438       .  S
Zr1466     O1472   2.408       .  S
Zr1466     O1473   2.402       .  S
Zr1467     O1469   2.434       .  S
Zr1467     O1491   2.435       .  S
Zr1467     O1493   2.468       .  S
Zr1467     O1471   2.410       .  S
Zr1467     O1474   2.403       .  S
Zr1468     O1494   2.439       .  S
Zr1468     O1495   2.435       .  S
Zr1468     O1470   2.438       .  S
Zr1468     O1471   2.391       .  S
Zr1468     O1472   2.360       .  S
O1469      H1506   0.990       .  S
O1470      H1501   0.989       .  S
O1470      H1515   0.990       .  S
O1472      H1498   0.964       .  S
O1473     Zr1483   2.371       .  S
O1474     Zr1483   2.362       .  S
O1474      H1499   0.965       .  S
C1475      C1656   1.473       .  S
C1476      C1636   1.485       .  S
C1477      C1562   1.482       .  S
O1478      H1514   0.990       .  S
O1479      C1481   1.286       .  A
O1480      C1481   1.280       .  A
C1481      C1609   1.458       .  S
O1482     Zr1483   2.435       .  S
O1482      H1511   0.990       .  S
Zr1483     O1486   2.436       .  S
Zr1483     O1487   2.439       .  S
Zr1483     O1488   2.465       .  S
O1484      C1489   1.285       .  A
O1485      H1502   0.990       .  S
O1485      H1517   0.990       .  S
O1486      H1503   0.990       .  S
O1487      H1507   0.990       .  S
O1487      H1516   0.990       .  S
O1488      C1489   1.291       .  A
C1489      C1586   1.503       .  S
O1490      H1509   0.988       .  S
O1490      H1513   0.990       .  S
O1491      H1505   0.990       .  S
O1491      H1512   0.990       .  S
O1492      C1496   1.282       .  A
O1493      C1496   1.289       .  A
O1494      H1504   0.989       .  S
O1495      H1508   0.990       .  S
C1496      C1543   1.477       .  S
Zr1519     O3744   2.439   1_554  S
Zr1519     O1521   2.455       .  S
Zr1519     O1525   2.371       .  S
Zr1519     O3746   2.394   1_554  S
Zr1519     O1527   2.379       .  S
Zr1519     O1528   2.403       .  S
Zr1519     O1529   2.405       .  S
Zr1519     O1530   2.407       .  S
O1520     Zr3743   2.437       .  S
O1520      H1576   0.989       .  S
O1520      H1584   0.990       .  S
O1521      C1541   1.278       .  A
O1522     Zr3743   2.385       .  S
O1522      C1543   1.278       .  A
O1523     Zr1533   2.511       .  S
O1523      C1542   1.297       .  A
O1524     Zr3756   2.469       .  S
O1524      C1543   1.288       .  A
O1525      C1542   1.270       .  A
O1526     Zr1534   2.394       .  S
O1526      C1541   1.265       .  A
O1527     Zr1532   2.373       .  S
O1527     Zr1534   2.383       .  S
O1528     Zr1533   2.379       .  S
O1528     Zr1534   2.380       .  S
O1528      H1563   0.964       .  S
O1529     Zr1532   2.395       .  S
O1529     Zr1549   2.417       .  S
O1529      H1566   0.966       .  S
O1530     Zr1533   2.395       .  S
O1530     Zr1549   2.418       .  S
Zr1531     O1556   2.439       .  S
Zr1531     O1550   2.404       .  S
Zr1531     O1558   2.414       .  S
Zr1531     O1546   2.418       .  S
Zr1531     O1537   2.385       .  S
Zr1531     O1538   2.387       .  S
Zr1531     O1539   2.381       .  S
Zr1531     O1540   2.381       .  S
Zr1532     O1551   2.436       .  S
Zr1532     O1544   2.434       .  S
Zr1532     O1545   2.421       .  S
Zr1532     O3748   2.466   1_554  S
Zr1532     O1538   2.415       .  S
Zr1532     O1539   2.403       .  S
Zr1533     O1535   2.434       .  S
Zr1533     O1557   2.436       .  S
Zr1533     O1559   2.468       .  S
Zr1533     O1537   2.417       .  S
Zr1533     O1540   2.409       .  S
Zr1534     O1560   2.435       .  S
Zr1534     O1561   2.435       .  S
Zr1534     O1536   2.437       .  S
Zr1534     O1537   2.390       .  S
Zr1534     O1538   2.367       .  S
O1535      H1572   0.990       .  S
O1536      H1567   0.990       .  S
O1536      H1581   0.990       .  S
O1538      H1564   0.966       .  S
O1539     Zr1549   2.361       .  S
O1540     Zr1549   2.362       .  S
O1540      H1565   0.965       .  S
C1541      C1599   1.484       .  S
C1542      C1629   1.492       .  S
O1544      H1580   0.989       .  S
O1545      C1547   1.283       .  A
O1546      C1547   1.285       .  A
C1547      C1646   1.459       .  S
O1548     Zr1549   2.436       .  S
O1548      H1577   0.990       .  S
Zr1549     O1552   2.435       .  S
Zr1549     O1553   2.440       .  S
Zr1549     O1554   2.486       .  S
O1550      C1555   1.278       .  A
O1551      H1568   0.990       .  S
O1551      H1583   0.989       .  S
O1552      H1569   0.990       .  S
O1553      H1573   0.990       .  S
O1553      H1582   0.990       .  S
O1554      C1555   1.295       .  A
C1555      C1679   1.501       .  S
O1556      H1575   0.990       .  S
O1556      H1579   0.990       .  S
O1557      H1571   0.990       .  S
O1557      H1578   0.990       .  S
O1558      C1562   1.285       .  A
O1559      C1562   1.290       .  A
O1560      H1570   0.990       .  S
O1561      H1574   0.990       .  S
C1585      C1586   1.418       .  A
C1585      C1590   1.422       .  A
C1585      F1592   1.357       .  S
C1586      C1587   1.403       .  A
C1587      C1588   1.396       .  A
C1587      F1594   1.358       .  S
C1588      C1589   1.412       .  A
C1588      F1593   1.358       .  S
C1589      C1590   1.411       .  A
C1590      F1591   1.357       .  S
C1595      C1600   1.399       .  A
C1595      C3820   1.413       .  A
C1595      F1602   1.357       .  S
C1596      C1597   1.408       .  A
C1596      C3819   1.414       .  A
C1597      C1598   1.395       .  A
C1597      F1604   1.358       .  S
C1598      C1599   1.410       .  A
C1598      F1603   1.358       .  S
C1599      C3824   1.407       .  A
C1600      C3823   1.406       .  A
C1600      F1601   1.357       .  S
C1605      C1606   1.395       .  A
C1605      C1610   1.391       .  A
C1605      F1612   1.358       .  S
C1606      C1607   1.408       .  A
C1607      C1608   1.390       .  A
C1607      F1614   1.359       .  S
C1608      C1609   1.398       .  A
C1608      F1613   1.358       .  S
C1609      C1610   1.410       .  A
C1610      F1611   1.358       .  S
C1615      C1616   1.414       .  A
C1615      C1620   1.409       .  A
C1615      F3846   1.357       .  S
C1616      C1617   1.412       .  A
C1617      C1618   1.403       .  A
C1617      F1624   1.358       .  S
C1618      C1619   1.405       .  A
C1618      F1623   1.359       .  S
C1619      C1620   1.404       .  A
C1620      F1621   1.357       .  S
F1622      C3839   1.358   1_554  S
C1625      C1626   1.404       .  A
C1625      C3854   1.397       .  A
C1625      F1632   1.358       .  S
C1626      C1627   1.424       .  A
C1627      C3852   1.404       .  A
C1627      F1634   1.358       .  S
C1628      C1629   1.399       .  A
C1628      C3851   1.404       .  A
C1628      F1633   1.357       .  S
C1629      C1630   1.420       .  A
C1630      C3849   1.399   1_554  A
C1630      F1631   1.357   1_554  S
C1635      C1636   1.419       .  A
C1635      C1640   1.398       .  A
C1635      F1642   1.357       .  S
C1636      C1637   1.400       .  A
C1637      C1638   1.401       .  A
C1637      F1644   1.357       .  S
C1638      C1639   1.414       .  A
C1638      F1643   1.358       .  S
C1639      C1640   1.396       .  A
C1640      F1641   1.358       .  S
C1645      C1646   1.402       .  A
C1645      C1650   1.398       .  A
C1645      F1652   1.358       .  S
C1646      C1647   1.396       .  A
C1647      C1648   1.389       .  A
C1647      F1654   1.357       .  S
C1648      C1649   1.415       .  A
C1648      F1653   1.358       .  S
C1649      C1650   1.410       .  A
C1650      F1651   1.358       .  S
C1655      C1656   1.402       .  A
C1655      C1660   1.392       .  A
C1655      F1662   1.357       .  S
C1656      C1657   1.408       .  A
C1657      C1658   1.400       .  A
C1657      F1664   1.358       .  S
C1658      C1659   1.407       .  A
C1658      F1663   1.358       .  S
C1659      C1660   1.413       .  A
C1660      F1661   1.358       .  S
C1665      C1666   1.415       .  A
C1665      C1670   1.413       .  A
C1665      F1672   1.357   1_545  S
C1666      C1667   1.417       .  A
C1667      C1668   1.413       .  A
C1667      F1674   1.358       .  S
C1668      C1669   1.408       .  A
C1668      F1673   1.358       .  S
C1669      C1670   1.410       .  A
C1670      F1671   1.358   1_545  S
C1675      C1676   1.401       .  A
C1675      C1680   1.411       .  A
C1675      F1682   1.357       .  S
C1676      C1677   1.411       .  A
C1677      C1678   1.398       .  A
C1677      F1684   1.358       .  S
C1678      C1679   1.404       .  A
C1678      F1683   1.358       .  S
C1679      C1680   1.421       .  A
C1680      F1681   1.356       .  S
C1685      C1686   1.414       .  A
C1685      C1690   1.390       .  A
C1685      F1692   1.356   1_455  S
C1686      C1687   1.401       .  A
C1687      C1688   1.394       .  A
C1687      F1694   1.358       .  S
C1688      C1689   1.413       .  A
C1688      F1693   1.358       .  S
C1689      C1690   1.396       .  A
C1690      F1691   1.358   1_455  S
C1695      C1696   1.426       .  A
C1695      C1700   1.406       .  A
C1695      F1702   1.358       .  S
C1696      C1697   1.404       .  A
C1697      C1698   1.406       .  A
C1697      F1704   1.357       .  S
C1698      C1699   1.421       .  A
C1698      F1703   1.358       .  S
C1699      C1700   1.400       .  A
C1700      F1701   1.358       .  S
C1705      C1706   1.404       .  A
C1705      C1710   1.395       .  A
C1705      F1712   1.358       .  S
C1706      C1707   1.400       .  A
C1707      C1708   1.385       .  A
C1707      F1714   1.357       .  S
C1708      C1709   1.408       .  A
C1708      F1713   1.359       .  S
C1709      C1710   1.407       .  A
C1710      F1711   1.357       .  S
C1715      C1716   1.419   1_455  A
C1715      C1720   1.395       .  A
C1715      F1722   1.356   1_455  S
C1716      C1717   1.408       .  A
C1717      C1718   1.402   1_655  A
C1717      F1724   1.357       .  S
C1718      C1719   1.404       .  A
C1718      F1723   1.350       .  S
C1719      C1720   1.394       .  A
C1720      F1721   1.357       .  S
C1725      C1726   1.402       .  A
C1725      C1730   1.392       .  A
C1725      F1732   1.358       .  S
C1726      C1727   1.406       .  A
C1727      C1728   1.399       .  A
C1727      F1734   1.358       .  S
C1728      C1729   1.408       .  A
C1728      F1733   1.358       .  S
C1729      C1730   1.410       .  A
C1730      F1731   1.359       .  S
C1735      C1736   1.413       .  A
C1735      C1740   1.406       .  A
C1735      F1742   1.358       .  S
C1736      C1737   1.408       .  A
C1737      C1738   1.411       .  A
C1737      F1744   1.357       .  S
C1738      C1739   1.412       .  A
C1738      F1743   1.358       .  S
C1739      C1740   1.404       .  A
C1740      F1741   1.358       .  S
C1745      C1746   1.399       .  A
C1745      C1750   1.404       .  A
C1745      F1752   1.358       .  S
C1746      C1747   1.421       .  A
C1747      C1748   1.405       .  A
C1747      F1754   1.358       .  S
C1748      C1749   1.400       .  A
C1748      F1753   1.357       .  S
C1749      C1750   1.422       .  A
C1750      F1751   1.359       .  S
C1755      C1756   1.411       .  A
C1755      C1760   1.390       .  A
C1755      F1762   1.358       .  S
C1756      C1757   1.403       .  A
C1757      C1758   1.394       .  A
C1757      F1764   1.358       .  S
C1758      C1759   1.408       .  A
C1758      F1763   1.358       .  S
C1759      C1760   1.399       .  A
C1760      F1761   1.356       .  S
C1765      C1766   1.405       .  A
C1765      C1770   1.402       .  A
C1765      F1772   1.358       .  S
C1766      C1767   1.416       .  A
C1767      C1768   1.403       .  A
C1767      F1774   1.358       .  S
C1768      C1769   1.401       .  A
C1768      F1773   1.358       .  S
C1769      C1770   1.409       .  A
C1770      F1771   1.357       .  S
C1775      C1776   1.409       .  A
C1775      C1780   1.392       .  A
C1775      F1782   1.358       .  S
C1776      C4001   1.412       .  A
C1777      C4000   1.405       .  A
C1777      C4002   1.391       .  A
C1777      F1784   1.358       .  S
C1778      C1779   1.398       .  A
C1778      C4001   1.393       .  A
C1778      F4007   1.358       .  S
C1779      C1780   1.400       .  A
C1780      F1781   1.358       .  S
F1783      C4002   1.358       .  S
C1785      C1786   1.407       .  A
C1785      C4014   1.384       .  A
C1785      F1792   1.358       .  S
C1786      C4011   1.409       .  A
C1787      C1788   1.391       .  A
C1787      C4010   1.408       .  A
C1787      F4018   1.358       .  S
C1788      C1789   1.410       .  A
C1788      F1793   1.359       .  S
C1789      C1790   1.405       .  A
C1790      C4009   1.392       .  A
C1790      F1791   1.358       .  S
F1794      C4011   1.358       .  S
C1795      C1796   1.405       .  A
C1795      C1800   1.398       .  A
C1795      F1802   1.358       .  S
C1796      C1797   1.402       .  A
C1797      C1798   1.388       .  A
C1797      F1804   1.358       .  S
C1798      C1799   1.408       .  A
C1798      F1803   1.357       .  S
C1799      C1800   1.405       .  A
C1800      F1801   1.358       .  S
C1805      C1806   1.412       .  A
C1805      C1810   1.412       .  A
C1805      F1812   1.357       .  S
C1806      C1807   1.411       .  A
C1807      C1808   1.414       .  A
C1807      F1814   1.358   1_554  S
C1808      C1809   1.418       .  A
C1808      F1813   1.358   1_554  S
C1809      C1810   1.413       .  A
C1810      F1811   1.357       .  S
C1815      C1816   1.405       .  A
C1815      C1820   1.407       .  A
C1815      F1822   1.358       .  S
C1816      C1817   1.414       .  A
C1817      C1818   1.397       .  A
C1817      F1824   1.358       .  S
C1818      C1819   1.400       .  A
C1818      F1823   1.358       .  S
C1819      C3303   1.484   1_554  S
C1819      C1820   1.414       .  A
C1820      F4045   1.358       .  S
F1821      C4044   1.358       .  S
C1825      C1830   1.409       .  A
C1825      C4050   1.423   1_556  A
C1825      F1832   1.357       .  S
C1826      C1827   1.418       .  A
C1826      C4049   1.417       .  A
C1827      C1828   1.435       .  A
C1827      F1834   1.357       .  S
C1828      C1829   1.422   1_655  A
C1828      F1833   1.357       .  S
C1829      C4054   1.408   1_455  A
C1830      C4053   1.410   1_656  A
C1830      F1831   1.359   1_655  S
C1835      C1836   1.411       .  A
C1835      C1840   1.387       .  A
C1835      F1842   1.358       .  S
C1836      C1837   1.407       .  A
C1837      C1838   1.389       .  A
C1837      F1844   1.357       .  S
C1838      C1839   1.401       .  A
C1838      F1843   1.358       .  S
C1839      C1840   1.397       .  A
C1840      F1841   1.359       .  S
C1845      C1846   1.406       .  A
C1845      C1850   1.396       .  A
C1845      F1852   1.358       .  S
C1846      C1847   1.418       .  A
C1847      C1848   1.416       .  A
C1847      F1854   1.357       .  S
C1848      C1849   1.407       .  A
C1848      F1853   1.357       .  S
C1849      C1850   1.411       .  A
C1850      F1851   1.359       .  S
C1855      C1856   1.411       .  A
C1855      C1860   1.398       .  A
C1855      F1862   1.358       .  S
C1856      C1857   1.411   1_556  A
C1857      C1858   1.393   1_554  A
C1857      F4088   1.357       .  S
C1858      C1859   1.403       .  A
C1858      F4087   1.357   1_556  S
C1859      C1860   1.404       .  A
C1860      F1861   1.358       .  S
F1863      C4082   1.357       .  S
F1864      C4081   1.358       .  S
C1865      C1866   1.411       .  A
C1865      C1870   1.415       .  A
C1865      F1872   1.358       .  S
C1866      C1867   1.412       .  A
C1867      C1868   1.418       .  A
C1867      F1874   1.357       .  S
C1868      C1869   1.413       .  A
C1868      F1873   1.357       .  S
C1869      C1870   1.412       .  A
C1870      F1871   1.358       .  S
C1875      C1876   1.422       .  A
C1875      C1880   1.396       .  A
C1875      F4106   1.357       .  S
C1876      C2776   1.486       .  S
C1876      C1877   1.407       .  A
C1877      C1878   1.404       .  A
C1877      F1884   1.356       .  S
C1878      C1879   1.404       .  A
C1878      F1883   1.351       .  S
C1879      C1880   1.392       .  A
C1880      F1881   1.358       .  S
F1882      C4099   1.358       .  S
C1885      C1886   1.411       .  A
C1885      C1890   1.398       .  A
C1885      F1892   1.358       .  S
C1886      C1887   1.400       .  A
C1887      C1888   1.393       .  A
C1887      F1894   1.358       .  S
C1888      C1889   1.410       .  A
C1888      F1893   1.356       .  S
C1889      C1890   1.402       .  A
C1890      F1891   1.358       .  S
C1895      C1896   1.415       .  A
C1895      C1900   1.411       .  A
C1895      F1902   1.358       .  S
C1896      C1897   1.408       .  A
C1897      C1898   1.401       .  A
C1897      F1904   1.358       .  S
C1898      C1899   1.405       .  A
C1898      F4127   1.358       .  S
C1899      C1900   1.406       .  A
C1900      F1901   1.358       .  S
F1903      C4122   1.358   1_554  S
C1905      C1910   1.400       .  A
C1905      C4130   1.414   1_554  A
C1905      F1912   1.358       .  S
C1906      C1907   1.402       .  A
C1906      C4129   1.415       .  A
C1907      C1908   1.400       .  A
C1907      F1914   1.358       .  S
C1908      C4133   1.414       .  A
C1908      F1913   1.358       .  S
C1909      C1910   1.400       .  A
C1909      C4132   1.419   1_554  A
C1910      F1911   1.357       .  S
C1915      C1916   1.425       .  A
C1915      C1920   1.442   1_655  A
C1915      F1922   1.357       .  S
C1916      C1917   1.407       .  A
C1917      C1918   1.403   1_655  A
C1917      F1924   1.359       .  S
C1918      C1919   1.413       .  A
C1918      F1923   1.346       .  S
C1919      C1920   1.422       .  A
C1920      F1921   1.356       .  S
C1925      C1926   1.411       .  A
C1925      C1930   1.401       .  A
C1925      F1932   1.357       .  S
C1926      C1927   1.396       .  A
C1927      C1928   1.390       .  A
C1927      F1934   1.358       .  S
C1928      C1929   1.414   1_565  A
C1928      F1933   1.352       .  S
C1929      C1930   1.406   1_545  A
C1930      F1931   1.357   1_565  S
C1935      C1936   1.418       .  A
C1935      C1940   1.405       .  A
C1935      F1942   1.358       .  S
C1936      C1937   1.393       .  A
C1937      C1938   1.398       .  A
C1937      F1944   1.358       .  S
C1938      C1939   1.421       .  A
C1938      F1943   1.356       .  S
C1939      C1940   1.400       .  A
C1940      F1941   1.357       .  S
C1945      C1946   1.396       .  A
C1945      C1950   1.392       .  A
C1945      F1952   1.359       .  S
C1946      C1947   1.403       .  A
C1947      C1948   1.400       .  A
C1947      F1954   1.358       .  S
C1948      C1949   1.410       .  A
C1948      F1953   1.357       .  S
C1949      C1950   1.418       .  A
C1950      F1951   1.358       .  S
C1955      C1956   1.413       .  A
C1955      C1960   1.411       .  A
C1955      F1962   1.358       .  S
C1956      C1957   1.415   1_545  A
C1957      C1958   1.422       .  A
C1957      F1964   1.357       .  S
C1958      C1959   1.411   1_565  A
C1958      F1963   1.357       .  S
C1959      C1960   1.408       .  A
C1960      F1961   1.356       .  S
C1965      C1966   1.411       .  A
C1965      C1970   1.385       .  A
C1965      F1972   1.358   1_545  S
C1966      C1967   1.400       .  A
C1967      C1968   1.398       .  A
C1967      F1974   1.357       .  S
C1968      C1969   1.407       .  A
C1968      F1973   1.356       .  S
C1969      C1970   1.396       .  A
C1970      F1971   1.359       .  S
C1975      C1976   1.409       .  A
C1975      C1980   1.400       .  A
C1975      F1982   1.358       .  S
C1976      C1977   1.409       .  A
C1977      C1978   1.385       .  A
C1977      F1984   1.358       .  S
C1978      C1979   1.401       .  A
C1978      F1983   1.354       .  S
C1979      C1980   1.405       .  A
C1980      F1981   1.358       .  S
C1985      C1986   1.417       .  A
C1985      C1990   1.412       .  A
C1985      F1992   1.358       .  S
C1986      C1987   1.413       .  A
C1987      C1988   1.410       .  A
C1987      F1994   1.357   1_565  S
C1988      C1989   1.410       .  A
C1988      F1993   1.358   1_565  S
C1989      C1990   1.407       .  A
C1990      F1991   1.356       .  S
C1995      C1996   1.401       .  A
C1995      C2000   1.408       .  A
C1995      F2002   1.356       .  S
C1996      C1997   1.411       .  A
C1997      C1998   1.395       .  A
C1997      F2004   1.359       .  S
C1998      C1999   1.404       .  A
C1998      F2003   1.358       .  S
C1999      C2000   1.418       .  A
C2000      F2001   1.356       .  S
C2005      C2006   1.412       .  A
C2005      C2010   1.417       .  A
C2005      F2012   1.358       .  S
C2006      C2007   1.416   1_655  A
C2007      C2008   1.426       .  A
C2007      F2014   1.357       .  S
C2008      C2009   1.414   1_455  A
C2008      F2013   1.357       .  S
C2009      C2010   1.414       .  A
C2010      F2011   1.358       .  S
C2015      C2016   1.405       .  A
C2015      C2020   1.397       .  A
C2015      F2022   1.357       .  S
C2016      C2017   1.413       .  A
C2017      C2018   1.385       .  A
C2017      F2024   1.356       .  S
C2018      C2019   1.394       .  A
C2018      F2023   1.357       .  S
C2019      C2020   1.410       .  A
C2020      F2021   1.358       .  S
C2025      C2026   1.407       .  A
C2025      C2030   1.393       .  A
C2025      F2032   1.357       .  S
C2026      C2027   1.410       .  A
C2027      C2028   1.390       .  A
C2027      F2034   1.358       .  S
C2028      C2029   1.403       .  A
C2028      F2033   1.359       .  S
C2029      C2030   1.407       .  A
C2030      F2031   1.359       .  S
C2035      C2036   1.408       .  A
C2035      C2040   1.409       .  A
C2035      F2042   1.358       .  S
C2036      C2037   1.427       .  A
C2037      C2038   1.410       .  A
C2037      F2044   1.357       .  S
C2038      C2039   1.400       .  A
C2038      F2043   1.358       .  S
C2039      C2040   1.418       .  A
C2040      F2041   1.358       .  S
C2045      C2046   1.406       .  A
C2045      C2050   1.390       .  A
C2045      F2052   1.356       .  S
C2046      C2047   1.397       .  A
C2047      C2048   1.398       .  A
C2047      F2054   1.358       .  S
C2048      C2049   1.419       .  A
C2048      F2053   1.358       .  S
C2049      C2050   1.404       .  A
C2050      F2051   1.358       .  S
C2055      C2056   1.420   1_565  A
C2055      C2060   1.436       .  A
C2055      F2062   1.356   1_565  S
C2056      C2057   1.402   1_645  A
C2057      C2058   1.406       .  A
C2057      F2064   1.352   1_565  S
C2058      C2059   1.416       .  A
C2058      F2063   1.350       .  S
C2059      C2060   1.423   1_455  A
C2060      F2061   1.356       .  S
C2065      C2066   1.411       .  A
C2065      C2070   1.401       .  A
C2065      F2072   1.357       .  S
C2066      C2067   1.395       .  A
C2067      C2068   1.380       .  A
C2067      F2074   1.357       .  S
C2068      C2069   1.407       .  A
C2068      F2073   1.353       .  S
C2069      C2070   1.405       .  A
C2070      F2071   1.357       .  S
C2075      C2076   1.415       .  A
C2075      C2080   1.395       .  A
C2075      F2082   1.356       .  S
C2076      C2077   1.412       .  A
C2077      C2078   1.397       .  A
C2077      F2084   1.356   1_655  S
C2078      C2079   1.404       .  A
C2078      F2083   1.357       .  S
C2079      C2080   1.396       .  A
C2080      F2081   1.357       .  S
C2085      C2086   1.402       .  A
C2085      C2090   1.394       .  A
C2085      F2092   1.359       .  S
C2086      C2087   1.400       .  A
C2087      C2088   1.396       .  A
C2087      F2094   1.357       .  S
C2088      C2089   1.408       .  A
C2088      F2093   1.358       .  S
C2089      C2090   1.408       .  A
C2090      F2091   1.358       .  S
C2095      C2096   1.405       .  A
C2095      C2100   1.403       .  A
C2095      F2102   1.358       .  S
C2096      C2097   1.407       .  A
C2097      C2098   1.405       .  A
C2097      F2104   1.358   1_455  S
C2098      C2099   1.407       .  A
C2098      F2103   1.357   1_455  S
C2099      C2100   1.410       .  A
C2100      F2101   1.358       .  S
C2105      C2106   1.415       .  A
C2105      C2110   1.400       .  A
C2105      F2112   1.358       .  S
C2106      C2107   1.400       .  A
C2107      C2108   1.399       .  A
C2107      F2114   1.358       .  S
C2108      C2109   1.421       .  A
C2108      F2113   1.359       .  S
C2109      C2110   1.403       .  A
C2110      F2111   1.357       .  S
C2115      C2116   1.407       .  A
C2115      C2120   1.394       .  A
C2115      F2122   1.358       .  S
C2116      C2117   1.401       .  A
C2117      C2118   1.389       .  A
C2117      F2124   1.359       .  S
C2118      C2119   1.412       .  A
C2118      F2123   1.356       .  S
C2119      C2120   1.411       .  A
C2120      F2121   1.358       .  S
C2125      C2126   1.409   1_545  A
C2125      C2130   1.389   1_545  A
C2125      F2132   1.358       .  S
C2126      C2127   1.406       .  A
C2127      C2128   1.391       .  A
C2127      F2134   1.358       .  S
C2128      C2129   1.407       .  A
C2128      F2133   1.358       .  S
C2129      C2130   1.403       .  A
C2130      F2131   1.359   1_565  S
C2135      C2136   1.414       .  A
C2135      C2140   1.424   1_545  A
C2135      F2142   1.357       .  S
C2136      C2137   1.417   1_556  A
C2137      C2138   1.405   1_545  A
C2137      F4368   1.358       .  S
C2138      C2139   1.405   1_554  A
C2138      F4367   1.359       .  S
C2139      C2140   1.415       .  A
C2140      F2141   1.357       .  S
F2143      C4362   1.358       .  S
F2144      C4361   1.359       .  S
C2145      C2146   1.412       .  A
C2145      C2150   1.401       .  A
C2145      F2152   1.359       .  S
C2146      C2147   1.399       .  A
C2147      C2148   1.404       .  A
C2147      F2154   1.358       .  S
C2148      C2149   1.422       .  A
C2148      F2153   1.358       .  S
C2149      C2150   1.408       .  A
C2150      F2151   1.358       .  S
C2155      C2156   1.406       .  A
C2155      C2160   1.393       .  A
C2155      F4386   1.358       .  S
C2156      C2314   1.468       .  S
C2156      C2157   1.405       .  A
C2157      C2158   1.396       .  A
C2157      F2164   1.358       .  S
C2158      C2159   1.407       .  A
C2158      F2163   1.358       .  S
C2159      C2160   1.406       .  A
C2160      F2161   1.358       .  S
F2162      C4379   1.358   1_554  S
C2165      C2166   1.419       .  A
C2165      C2170   1.431       .  A
C2165      F2172   1.357       .  S
C2166      C2167   1.416       .  A
C2167      C2168   1.412       .  A
C2167      F2174   1.358       .  S
C2168      C2169   1.415       .  A
C2168      F2173   1.358       .  S
C2169      C2170   1.417       .  A
C2170      F2171   1.357       .  S
C2175      C2176   1.402       .  A
C2175      C4404   1.384       .  A
C2175      F2182   1.358       .  S
C2176      C4401   1.409       .  A
C2177      C2178   1.400       .  A
C2177      C4400   1.412       .  A
C2177      F2184   1.357       .  S
C2178      C2179   1.404       .  A
C2178      F2183   1.358       .  S
C2179      C2180   1.410       .  A
C2180      C4399   1.386       .  A
C2180      F2181   1.356       .  S
C2185      C2186   1.402       .  A
C2185      C2190   1.395       .  A
C2185      F2192   1.358       .  S
C2186      C2187   1.398       .  A
C2187      C2188   1.396       .  A
C2187      F2194   1.357       .  S
C2188      C2189   1.413       .  A
C2188      F4417   1.357       .  S
C2189      C3568   1.476       .  S
C2189      C2190   1.414       .  A
C2190      F2191   1.358       .  S
F2193      C4412   1.359       .  S
C2195      C2196   1.404       .  A
C2195      C2200   1.390       .  A
C2195      F2202   1.358       .  S
C2196      C2197   1.414       .  A
C2197      C2198   1.394       .  A
C2197      F2204   1.358       .  S
C2198      C2199   1.395       .  A
C2198      F2203   1.358       .  S
C2199      C2200   1.404       .  A
C2200      F2201   1.359       .  S
C2205      C2206   1.416       .  A
C2205      C2210   1.418       .  A
C2205      F2212   1.357   1_554  S
C2206      C2207   1.410       .  A
C2207      C2208   1.406       .  A
C2207      F2214   1.358       .  S
C2208      C2209   1.415       .  A
C2208      F2213   1.358       .  S
C2209      C2210   1.412       .  A
C2210      F2211   1.357   1_554  S
C2215      C2216   1.406       .  A
C2215      C2220   1.403       .  A
C2215      F2222   1.358       .  S
C2216      C2217   1.406       .  A
C2217      C2218   1.405       .  A
C2217      F2224   1.355       .  S
C2218      C2219   1.401       .  A
C2218      F4447   1.357       .  S
C2219      C2511   1.480       .  S
C2219      C2220   1.408       .  A
C2220      F2221   1.358       .  S
F2223      C4442   1.357       .  S
Zr2225     O2226   2.439       .  S
Zr2225     O2227   2.512       .  S
Zr2225     O2228   2.471       .  S
Zr2225     O2231   2.403       .  S
Zr2225     O2233   2.360       .  S
Zr2225     O2234   2.386       .  S
Zr2225     O2235   2.441       .  S
Zr2225     O2236   2.433       .  S
O2226      H2282   0.990       .  S
O2226      H2290   0.990       .  S
O2227      C2247   1.299       .  A
O2228      C2249   1.290       .  A
O2229     Zr2239   2.397       .  S
O2229      C2248   1.275       .  A
O2230     Zr2238   2.499       .  S
O2230      C2249   1.296       .  A
O2231      C2248   1.277       .  A
O2232     Zr2240   2.413       .  S
O2232      C2247   1.279       .  A
O2233     Zr2238   2.379       .  S
O2233     Zr2240   2.352       .  S
O2234     Zr2239   2.377       .  S
O2234     Zr2240   2.383       .  S
O2234      H2269   0.963       .  S
O2235     Zr2238   2.403       .  S
O2235     Zr2255   2.479       .  S
O2235      H2272   0.966       .  S
O2236     Zr2239   2.384       .  S
O2236     Zr2255   2.422       .  S
Zr2237     O2262   2.430       .  S
Zr2237     O2256   2.427       .  S
Zr2237     O2264   2.413       .  S
Zr2237     O2252   2.426       .  S
Zr2237     O2243   2.377       .  S
Zr2237     O2244   2.431       .  S
Zr2237     O2245   2.385       .  S
Zr2237     O2246   2.385       .  S
Zr2238     O2257   2.440       .  S
Zr2238     O2250   2.439       .  S
Zr2238     O2251   2.431       .  S
Zr2238     O2244   2.441       .  S
Zr2238     O2245   2.429       .  S
Zr2239     O2241   2.436       .  S
Zr2239     O2263   2.437       .  S
Zr2239     O2265   2.417       .  S
Zr2239     O2243   2.373       .  S
Zr2239     O2246   2.352       .  S
Zr2240     O2266   2.433       .  S
Zr2240     O2267   2.436       .  S
Zr2240     O2242   2.438       .  S
Zr2240     O2243   2.355       .  S
Zr2240     O2244   2.391       .  S
O2241      H2278   0.990       .  S
O2242      H2287   0.991       .  S
O2244      H2270   0.963       .  S
O2245     Zr2255   2.375       .  S
O2246     Zr2255   2.365       .  S
O2246      H2271   0.963       .  S
C2247      C4440   1.492       .  S
C2248      C4420   1.456       .  S
C2249      C4433   1.516       .  S
O2250      H2286   0.991       .  S
O2251      C2253   1.277       .  A
O2252      C2253   1.273       .  A
C2253      C4400   1.471       .  S
O2254     Zr2255   2.435       .  S
O2254      H2283   0.990       .  S
Zr2255     O2258   2.436       .  S
Zr2255     O2259   2.439       .  S
Zr2255     O2260   2.550       .  S
O2256      C2261   1.283       .  A
O2257      H2274   0.990       .  S
O2257      H2289   0.990       .  S
O2258      H2275   0.990       .  S
O2259      H2279   0.990       .  S
O2259      H2288   0.990       .  S
O2260      C2261   1.305       .  A
C2261      C4390   1.515       .  S
O2262      H2281   0.988       .  S
O2262      H2285   0.989       .  S
O2263      H2277   0.990       .  S
O2263      H2284   0.990       .  S
O2264      C2268   1.282       .  A
O2265      C2268   1.275       .  A
O2266      H2276   0.990       .  S
C2268      C4410   1.462       .  S
Zr2291     O2293   2.485       .  S
Zr2291     O2294   2.470       .  S
Zr2291     O2297   2.408       .  S
Zr2291     O2299   2.367       .  S
Zr2291     O2300   2.394       .  S
Zr2291     O2301   2.425       .  S
Zr2291     O2302   2.432       .  S
O2292      H2348   0.991       .  S
O2292      H2356   0.990       .  S
O2293      C2313   1.293       .  A
O2294      C2315   1.290       .  A
O2295     Zr2305   2.441       .  S
O2295      C2314   1.282       .  A
O2296     Zr2304   2.470       .  S
O2296      C2315   1.290       .  A
O2297      C2314   1.275       .  A
O2298     Zr2306   2.381       .  S
O2298      C2313   1.275       .  A
O2299     Zr2304   2.381       .  S
O2299     Zr2306   2.373       .  S
O2300     Zr2305   2.402       .  S
O2300     Zr2306   2.370       .  S
O2300      H2335   0.964       .  S
O2301     Zr2304   2.395       .  S
O2301     Zr2321   2.452       .  S
O2301      H2338   0.966       .  S
O2302     Zr2305   2.405       .  S
O2302     Zr2321   2.434       .  S
Zr2303     O2328   2.426       .  S
Zr2303     O2322   2.409       .  S
Zr2303     O2330   2.416       .  S
Zr2303     O2318   2.391       .  S
Zr2303     O2309   2.391       .  S
Zr2303     O2310   2.400       .  S
Zr2303     O2311   2.371       .  S
Zr2303     O2312   2.378       .  S
Zr2304     O2323   2.433       .  S
Zr2304     O2316   2.433       .  S
Zr2304     O2317   2.430       .  S
Zr2304     O2310   2.398       .  S
Zr2304     O2311   2.407       .  S
Zr2305     O2329   2.441       .  S
Zr2305     O2331   2.449       .  S
Zr2305     O2309   2.402       .  S
Zr2305     O2312   2.402       .  S
Zr2306     O2332   2.435       .  S
Zr2306     O2333   2.435       .  S
Zr2306     O2308   2.438       .  S
Zr2306     O2309   2.376       .  S
Zr2306     O2310   2.363       .  S
O2307      H2344   0.990       .  S
O2308      H2339   0.989       .  S
O2308      H2353   0.991       .  S
O2310      H2336   0.965       .  S
O2311     Zr2321   2.366       .  S
O2312     Zr2321   2.363       .  S
O2312      H2337   0.966       .  S
C2313      C4370   1.474       .  S
C2315      C4430   1.513       .  S
O2316      H2352   0.991       .  S
O2317      C2319   1.286       .  A
O2318      C2319   1.278       .  A
C2319      C4343   1.470       .  S
O2320      H2349   0.990       .  S
Zr2321     O2326   2.539       .  S
O2322      C2327   1.279       .  A
O2323      H2340   0.990       .  S
O2323      H2355   0.990       .  S
O2324      H2341   0.990       .  S
O2325      H2345   0.990       .  S
O2325      H2354   0.990       .  S
O2326      C2327   1.302       .  A
C2327      C4363   1.530       .  S
O2328      H2347   0.989       .  S
O2328      H2351   0.987       .  S
O2329      H2343   0.990       .  S
O2329      H2350   0.991       .  S
O2330      C2334   1.271       .  A
O2331      C2334   1.282       .  A
O2332      H2342   0.990       .  S
O2333      H2346   0.990       .  S
C2334      C4353   1.468       .  S
Zr2357     O2358   2.438       .  S
Zr2357     O2359   2.483       .  S
Zr2357     O2360   2.396       .  S
Zr2357     O2363   2.403       .  S
Zr2357     O2365   2.370       .  S
Zr2357     O2366   2.384       .  S
Zr2357     O2367   2.422       .  S
Zr2357     O2368   2.417       .  S
O2358      H2414   0.990       .  S
O2358      H2422   0.991       .  S
O2359      C2379   1.290       .  A
O2360      C2381   1.276       .  A
O2361     Zr2371   2.441       .  S
O2361      C2380   1.286       .  A
O2362     Zr2370   2.519       .  S
O2362      C2381   1.299       .  A
O2363      C2380   1.280       .  A
O2364     Zr2372   2.390       .  S
O2364      C2379   1.267       .  A
O2365     Zr2370   2.358       .  S
O2365     Zr2372   2.379       .  S
O2366     Zr2371   2.375       .  S
O2366     Zr2372   2.358       .  S
O2366      H2401   0.964       .  S
O2367     Zr2370   2.393       .  S
O2367     Zr2387   2.443       .  S
O2367      H2404   0.966   1_455  S
O2368     Zr2371   2.391       .  S
O2368     Zr2387   2.438       .  S
Zr2369     O2394   2.436       .  S
Zr2369     O2388   2.452       .  S
Zr2369     O2396   2.434       .  S
Zr2369     O2384   2.437       .  S
Zr2369     O2375   2.406       .  S
Zr2369     O2376   2.410       .  S
Zr2369     O2377   2.385       .  S
Zr2369     O2378   2.387       .  S
Zr2370     O2389   2.435   1_455  S
Zr2370     O2382   2.436   1_455  S
Zr2370     O2383   2.447   1_455  S
Zr2370     O2376   2.414       .  S
Zr2370     O2377   2.418       .  S
Zr2371     O2373   2.434       .  S
Zr2371     O2395   2.436       .  S
Zr2371     O2397   2.393       .  S
Zr2371     O2375   2.414       .  S
Zr2371     O2378   2.419       .  S
Zr2372     O2398   2.438       .  S
Zr2372     O2399   2.436       .  S
Zr2372     O2374   2.440       .  S
Zr2372     O2375   2.385       .  S
Zr2372     O2376   2.342       .  S
O2373      H2410   0.990       .  S
O2374      H2405   0.990       .  S
O2374      H2419   0.990       .  S
O2376      H2402   0.961       .  S
O2377     Zr2387   2.383       .  S
O2378     Zr2387   2.358       .  S
O2378      H2403   0.965       .  S
C2379      C4330   1.491       .  S
C2380      C4313   1.461       .  S
C2381      C4320   1.496       .  S
O2382      H2418   0.991       .  S
O2383      C2385   1.289   1_655  A
O2384      C2385   1.285       .  A
C2385      C4300   1.477   1_455  S
O2386     Zr2387   2.436   1_655  S
O2386      H2415   0.990       .  S
Zr2387     O2390   2.437   1_455  S
Zr2387     O2391   2.436       .  S
Zr2387     O2392   2.517       .  S
O2388      C2393   1.287       .  A
O2389      H2406   0.990       .  S
O2389      H2421   0.990       .  S
O2390      H2407   0.991       .  S
O2391      H2411   0.991       .  S
O2391      H2420   0.990       .  S
O2392      C2393   1.297       .  A
C2393      C4283   1.537       .  S
O2394      H2413   0.990       .  S
O2394      H2417   0.987       .  S
O2395      H2409   0.990       .  S
O2395      H2416   0.990       .  S
O2396      C2400   1.281       .  A
O2397      C2400   1.271       .  A
O2398      H2408   0.990       .  S
O2399      H2412   0.991       .  S
C2400      C4290   1.466       .  S
Zr2423     O2424   2.441       .  S
Zr2423     O2425   2.519       .  S
Zr2423     O2426   2.433       .  S
Zr2423     O2429   2.383       .  S
Zr2423     O2431   2.367       .  S
Zr2423     O2432   2.369       .  S
Zr2423     O2433   2.430       .  S
Zr2423     O2434   2.429       .  S
O2424      H2480   0.991       .  S
O2424      H2488   0.990       .  S
O2425      C2445   1.302       .  A
O2426      C2447   1.283       .  A
O2427     Zr2437   2.445       .  S
O2427      C2446   1.286       .  A
O2428     Zr2436   2.486       .  S
O2428      C2447   1.292   1_655  A
O2429      C2446   1.277       .  A
O2430     Zr2438   2.395       .  S
O2430      C2445   1.276       .  A
O2431     Zr2436   2.396   1_455  S
O2431     Zr2438   2.395       .  S
O2432     Zr2437   2.379       .  S
O2432     Zr2438   2.364       .  S
O2432      H2467   0.964       .  S
O2433     Zr2436   2.390   1_455  S
O2433     Zr2453   2.447       .  S
O2433      H2470   0.965       .  S
O2434     Zr2437   2.392       .  S
O2434     Zr2453   2.442       .  S
Zr2435     O2460   2.438       .  S
Zr2435     O2454   2.395       .  S
Zr2435     O2462   2.419       .  S
Zr2435     O2450   2.407   1_455  S
Zr2435     O2441   2.395       .  S
Zr2435     O2442   2.425       .  S
Zr2435     O2443   2.397       .  S
Zr2435     O2444   2.373       .  S
Zr2436     O2455   2.439       .  S
Zr2436     O2448   2.435       .  S
Zr2436     O2449   2.427       .  S
Zr2436     O2442   2.410   1_655  S
Zr2436     O2443   2.419   1_655  S
Zr2437     O2439   2.434       .  S
Zr2437     O2461   2.435       .  S
Zr2437     O2463   2.426       .  S
Zr2437     O2441   2.407       .  S
Zr2437     O2444   2.383       .  S
Zr2438     O2464   2.436       .  S
Zr2438     O2465   2.437       .  S
Zr2438     O2440   2.438       .  S
Zr2438     O2441   2.407       .  S
Zr2438     O2442   2.356       .  S
O2439      H2476   0.990       .  S
O2440      H2471   0.990       .  S
O2440      H2485   0.991       .  S
O2442      H2468   0.958       .  S
O2443     Zr2453   2.348       .  S
O2444     Zr2453   2.332       .  S
O2444      H2469   0.963       .  S
C2445      C4260   1.513       .  S
C2446      C4270   1.467       .  S
C2447      C4323   1.501       .  S
O2448      H2484   0.990       .  S
O2449      C2451   1.276       .  A
O2450      C2451   1.273       .  A
C2451      C4240   1.470       .  S
O2452     Zr2453   2.435       .  S
O2452      H2481   0.990       .  S
Zr2453     O2456   2.436   1_455  S
Zr2453     O2457   2.436       .  S
Zr2453     O2458   2.559       .  S
O2454      C2459   1.276       .  A
O2455      H2472   0.990       .  S
O2455      H2487   0.991       .  S
O2456      H2473   0.990       .  S
O2457      H2477   0.990       .  S
O2457      H2486   0.990       .  S
O2458      C2459   1.307       .  A
C2459      C4230   1.514   1_455  S
O2460      H2479   0.990       .  S
O2460      H2483   0.991       .  S
O2461      H2475   0.990       .  S
O2461      H2482   0.990       .  S
O2462      C2466   1.285       .  A
O2463      C2466   1.285       .  A
O2464      H2474   0.990       .  S
O2465      H2478   0.989       .  S
C2466      C4253   1.474       .  S
Zr2489     O2495   2.433   1_554  S
Zr2489     O2497   2.376       .  S
Zr2489     O2498   2.387   1_554  S
Zr2489     O2499   2.404       .  S
Zr2489     O2500   2.379   1_554  S
O2490      H2546   0.990       .  S
O2490      H2554   0.990       .  S
O2492      C2513   1.281       .  A
O2493     Zr2503   2.401       .  S
O2493      C2512   1.279       .  A
O2494      C2513   1.287       .  A
O2495      C2512   1.287       .  A
O2496     Zr2504   2.489   1_554  S
O2496      C2511   1.295       .  A
O2497     Zr2502   2.398   1_554  S
O2497     Zr2504   2.351   1_554  S
O2498     Zr2503   2.386       .  S
O2498     Zr2504   2.375       .  S
O2498      H2533   0.965       .  S
O2499     Zr2502   2.420   1_554  S
O2499     Zr2519   2.396   1_554  S
O2500     Zr2503   2.403       .  S
O2500     Zr2519   2.359       .  S
Zr2501     O2526   2.440       .  S
Zr2501     O2520   2.454       .  S
Zr2501     O2528   2.410       .  S
Zr2501     O2516   2.382       .  S
Zr2501     O2507   2.401       .  S
Zr2501     O2508   2.420       .  S
Zr2501     O2509   2.379       .  S
Zr2501     O2510   2.375       .  S
Zr2502     O2521   2.438   1_556  S
Zr2502     O2514   2.434   1_556  S
Zr2502     O2515   2.523       .  S
Zr2502     O2508   2.403       .  S
Zr2502     O2509   2.362       .  S
Zr2503     O2505   2.436       .  S
Zr2503     O2527   2.438       .  S
Zr2503     O2529   2.442       .  S
Zr2503     O2507   2.382       .  S
Zr2503     O2510   2.381       .  S
Zr2504     O2530   2.434       .  S
Zr2504     O2531   2.436       .  S
Zr2504     O2506   2.438   1_556  S
Zr2504     O2507   2.421       .  S
Zr2504     O2508   2.429       .  S
O2505      H2542   0.990       .  S
O2506      H2537   0.991       .  S
O2506      H2551   0.990       .  S
O2508      H2534   0.966       .  S
O2509     Zr2519   2.369       .  S
O2510     Zr2519   2.398       .  S
O2510      H2535   0.965       .  S
C2512      C4383   1.471       .  S
C2513      C2579   1.463       .  S
O2514      H2550   0.990       .  S
O2515      C2517   1.302       .  A
O2516      C2517   1.276       .  A
C2517      C4263   1.498       .  S
O2518     Zr2519   2.439       .  S
O2518      H2547   0.990       .  S
Zr2519     O2522   2.437       .  S
Zr2519     O2523   2.439       .  S
Zr2519     O2524   2.389       .  S
O2520      C2525   1.281       .  A
O2522      H2539   0.990       .  S
O2523      H2543   0.990       .  S
O2523      H2552   0.990       .  S
O2524      C2525   1.268       .  A
C2525      C4310   1.469       .  S
O2526      H2545   0.990       .  S
O2526      H2549   0.990       .  S
O2527      H2541   0.990       .  S
O2527      H2548   0.990       .  S
O2528      C2532   1.281       .  A
O2529      C2532   1.283       .  A
O2530      H2540   0.991       .  S
O2531      H2544   0.991       .  S
C2532      C2598   1.467       .  S
Zr2555     O2556   2.442       .  S
Zr2555     O2557   2.396       .  S
Zr2555     O2558   2.411       .  S
Zr2555     O2561   2.432       .  S
Zr2555     O2563   2.380       .  S
Zr2555     O2564   2.389       .  S
Zr2555     O2565   2.401       .  S
Zr2555     O2566   2.368       .  S
O2556      H2612   0.991       .  S
O2556      H2620   0.990       .  S
O2557      C2577   1.276       .  A
O2558      C2579   1.281       .  A
O2559     Zr2569   2.405       .  S
O2559      C2578   1.279       .  A
O2560     Zr2568   2.440       .  S
O2560      C2579   1.284       .  A
O2561      C2578   1.286       .  A
O2562     Zr2570   2.467       .  S
O2562      C2577   1.291       .  A
O2563     Zr2568   2.408       .  S
O2563     Zr2570   2.367       .  S
O2564     Zr2569   2.396       .  S
O2564     Zr2570   2.375       .  S
O2564      H2599   0.965       .  S
O2565     Zr2568   2.412       .  S
O2565     Zr2585   2.385       .  S
O2565      H2602   0.966       .  S
O2566     Zr2569   2.392       .  S
O2566     Zr2585   2.348       .  S
Zr2567     O2592   2.435       .  S
Zr2567     O2586   2.450       .  S
Zr2567     O2594   2.390       .  S
Zr2567     O2582   2.371       .  S
Zr2567     O2573   2.402       .  S
Zr2567     O2574   2.406       .  S
Zr2567     O2575   2.372       .  S
Zr2567     O2576   2.359       .  S
Zr2568     O2587   2.435       .  S
Zr2568     O2580   2.436       .  S
Zr2568     O2581   2.484       .  S
Zr2568     O2574   2.393       .  S
Zr2568     O2575   2.382       .  S
Zr2569     O2571   2.437       .  S
Zr2569     O2593   2.437       .  S
Zr2569     O2595   2.461       .  S
Zr2569     O2573   2.378       .  S
Zr2569     O2576   2.381       .  S
Zr2570     O2596   2.435       .  S
Zr2570     O2597   2.437       .  S
Zr2570     O2572   2.437       .  S
Zr2570     O2573   2.421       .  S
Zr2570     O2574   2.420       .  S
O2571      H2608   0.990       .  S
O2572      H2603   0.991       .  S
O2572      H2617   0.990       .  S
O2574      H2600   0.966       .  S
O2575     Zr2585   2.369       .  S
O2576     Zr2585   2.392       .  S
O2576      H2601   0.966       .  S
C2577      C4373   1.485       .  S
C2578      C4423   1.461       .  S
O2580      H2616   0.990       .  S
O2581      C2583   1.294       .  A
O2582      C2583   1.274       .  A
C2583      C4333   1.491       .  S
O2584     Zr2585   2.437       .  S
O2584      H2613   0.990       .  S
Zr2585     O2588   2.435       .  S
Zr2585     O2589   2.438       .  S
Zr2585     O2590   2.369       .  S
O2586      C2591   1.288       .  A
O2587      H2604   0.990       .  S
O2587      H2619   0.991       .  S
O2588      H2605   0.990       .  S
O2589      H2609   0.990       .  S
O2589      H2618   0.991       .  S
O2590      C2591   1.272       .  A
C2591      C4273   1.479       .  S
O2592      H2611   0.989       .  S
O2592      H2615   0.991       .  S
O2593      H2607   0.990       .  S
O2593      H2614   0.991       .  S
O2594      C2598   1.276       .  A
O2595      C2598   1.287       .  A
O2596      H2606   0.990       .  S
O2597      H2610   0.990       .  S
Zr2621     O2622   2.445   1_565  S
Zr2621     O2623   2.442   1_565  S
Zr2621     O2624   2.415       .  S
Zr2621     O2627   2.437   1_565  S
Zr2621     O2629   2.366       .  S
Zr2621     O2630   2.390       .  S
Zr2621     O2631   2.418       .  S
Zr2621     O2632   2.377       .  S
O2622      H2678   0.991       .  S
O2622      H2686   0.990   1_545  S
O2623      C2643   1.281   1_545  A
O2624      C2645   1.282       .  A
O2625     Zr2635   2.458   1_545  S
O2625      C2644   1.288       .  A
O2626     Zr2634   2.406       .  S
O2626      C2645   1.278       .  A
O2627      C2644   1.286       .  A
O2628     Zr2636   2.515       .  S
O2628      C2643   1.296       .  A
O2629     Zr2634   2.381       .  S
O2629     Zr2636   2.343       .  S
O2630     Zr2635   2.430       .  S
O2630     Zr2636   2.390       .  S
O2630      H2665   0.965   1_565  S
O2631     Zr2634   2.413       .  S
O2631     Zr2651   2.407       .  S
O2631      H2668   0.965       .  S
O2632     Zr2635   2.383       .  S
O2632     Zr2651   2.351       .  S
Zr2633     O2658   2.443       .  S
Zr2633     O2652   2.502       .  S
Zr2633     O2660   2.440       .  S
Zr2633     O2648   2.413       .  S
Zr2633     O2639   2.426       .  S
Zr2633     O2640   2.435       .  S
Zr2633     O2641   2.367       .  S
Zr2633     O2642   2.379       .  S
Zr2634     O2653   2.439       .  S
Zr2634     O2646   2.434       .  S
Zr2634     O2647   2.427       .  S
Zr2634     O2640   2.403       .  S
Zr2634     O2641   2.376       .  S
Zr2635     O2637   2.441   1_565  S
Zr2635     O2659   2.438   1_565  S
Zr2635     O2661   2.489       .  S
Zr2635     O2639   2.387       .  S
Zr2635     O2642   2.400       .  S
Zr2636     O2662   2.436   1_565  S
Zr2636     O2663   2.435       .  S
Zr2636     O2638   2.436       .  S
Zr2636     O2639   2.448       .  S
Zr2636     O2640   2.421       .  S
O2637      H2674   0.990       .  S
O2638      H2669   0.990       .  S
O2638      H2683   0.990       .  S
O2640      H2666   0.966       .  S
O2641     Zr2651   2.346       .  S
O2642     Zr2651   2.395       .  S
O2642      H2667   0.965       .  S
C2643      C4180   1.522   1_565  S
C2644      C4190   1.466       .  S
C2645      C4340   1.468       .  S
O2646      H2682   0.990       .  S
O2647      C2649   1.279       .  A
O2648      C2649   1.273       .  A
C2649      C4200   1.476       .  S
O2650     Zr2651   2.438       .  S
O2650      H2679   0.991       .  S
Zr2651     O2654   2.438       .  S
Zr2651     O2655   2.445       .  S
Zr2651     O2656   2.389       .  S
O2652      C2657   1.296       .  A
O2653      H2670   0.990       .  S
O2653      H2685   0.990       .  S
O2654      H2671   0.990       .  S
O2655      H2675   0.991       .  S
O2655      H2684   0.990       .  S
O2656      C2657   1.276       .  A
C2657      C4220   1.488       .  S
O2658      H2677   0.990       .  S
O2658      H2681   0.990       .  S
O2659      H2673   0.990       .  S
O2659      H2680   0.990       .  S
O2660      C2664   1.285       .  A
O2661      C2664   1.294       .  A
O2662      H2672   0.991       .  S
O2663      H2676   0.991       .  S
C2664      C4210   1.513       .  S
Zr2687     O2688   2.438       .  S
Zr2687     O2689   2.422       .  S
Zr2687     O2690   2.409       .  S
Zr2687     O2693   2.416       .  S
Zr2687     O2695   2.366       .  S
Zr2687     O2696   2.391       .  S
Zr2687     O2697   2.391       .  S
Zr2687     O2698   2.382       .  S
O2688      H2744   0.990       .  S
O2688      H2752   0.990       .  S
O2689      C2709   1.283       .  A
O2690      C2711   1.286       .  A
O2691     Zr2701   2.426       .  S
O2691      C2710   1.279       .  A
O2692     Zr2700   2.415       .  S
O2692      C2711   1.279       .  A
O2693      C2710   1.286       .  A
O2694     Zr2702   2.550       .  S
O2694      C2709   1.305       .  A
O2695     Zr2700   2.393       .  S
O2695     Zr2702   2.341       .  S
O2696     Zr2701   2.418       .  S
O2696     Zr2702   2.368       .  S
O2696      H2731   0.966       .  S
O2697     Zr2700   2.413       .  S
O2697     Zr2717   2.383       .  S
O2697      H2734   0.966       .  S
O2698     Zr2701   2.414       .  S
O2698     Zr2717   2.364       .  S
Zr2699     O2724   2.439       .  S
Zr2699     O2718   2.494       .  S
Zr2699     O2726   2.388       .  S
Zr2699     O2714   2.400       .  S
Zr2699     O2705   2.418       .  S
Zr2699     O2706   2.428       .  S
Zr2699     O2707   2.367       .  S
Zr2699     O2708   2.369       .  S
Zr2700     O2719   2.439       .  S
Zr2700     O2712   2.440       .  S
Zr2700     O2713   2.438       .  S
Zr2700     O2706   2.394       .  S
Zr2700     O2707   2.381       .  S
Zr2701     O2703   2.437       .  S
Zr2701     O2725   2.438       .  S
Zr2701     O2727   2.525       .  S
Zr2701     O2705   2.380       .  S
Zr2701     O2708   2.352       .  S
Zr2702     O2728   2.437   1_565  S
Zr2702     O2729   2.435       .  S
Zr2702     O2704   2.436       .  S
Zr2702     O2705   2.449       .  S
Zr2702     O2706   2.444       .  S
O2703      H2740   0.990       .  S
O2704      H2735   0.990       .  S
O2704      H2749   0.990       .  S
O2706      H2732   0.966       .  S
O2707     Zr2717   2.368       .  S
O2708     Zr2717   2.389       .  S
O2708      H2733   0.963       .  S
C2709      C4140   1.532       .  S
C2710      C4150   1.475       .  S
C2711      C4303   1.459       .  S
O2712      H2748   0.990       .  S
O2713      C2715   1.285       .  A
O2714      C2715   1.278       .  A
C2715      C4173   1.483       .  S
O2716     Zr2717   2.435       .  S
O2716      H2745   0.990       .  S
Zr2717     O2720   2.435       .  S
Zr2717     O2721   2.436       .  S
Zr2717     O2722   2.380       .  S
O2718      C2723   1.295       .  A
O2719      H2736   0.990       .  S
O2719      H2751   0.990       .  S
O2720      H2737   0.990       .  S
O2721      H2741   0.990       .  S
O2721      H2750   0.990       .  S
O2722      C2723   1.275       .  A
C2723      C4160   1.471       .  S
O2724      H2743   0.990       .  S
O2724      H2747   0.990       .  S
O2725      H2739   0.990   1_565  S
O2725      H2746   0.990       .  S
O2726      C2730   1.275       .  A
O2727      C2730   1.299       .  A
O2728      H2738   0.989       .  S
O2729      H2742   0.990       .  S
C2730      C4213   1.498       .  S
Zr2753     O2754   2.443       .  S
Zr2753     O2755   2.454       .  S
Zr2753     O2756   2.413       .  S
Zr2753     O2759   2.493   1_556  S
Zr2753     O2761   2.377       .  S
Zr2753     O2762   2.393       .  S
Zr2753     O2763   2.420       .  S
Zr2753     O2764   2.264       .  S
O2754      H2810   0.990       .  S
O2755      C2775   1.285       .  A
O2756      C2777   1.283       .  A
O2757     Zr2767   2.401   1_554  S
O2757      C2776   1.279       .  A
O2758     Zr2766   2.413       .  S
O2758      C2777   1.280       .  A
O2759      C2776   1.294       .  A
O2760     Zr2768   2.489       .  S
O2760      C2775   1.290       .  A
O2761     Zr2766   2.391       .  S
O2761     Zr2768   2.350       .  S
O2762     Zr2767   2.416       .  S
O2762     Zr2768   2.397       .  S
O2762      H2797   0.966       .  S
O2763     Zr2766   2.410       .  S
O2763     Zr2783   2.389       .  S
O2763      H2800   0.966       .  S
O2764     Zr2767   2.289       .  S
O2764     Zr2783   2.282       .  S
Zr2765     O2790   2.438       .  S
Zr2765     O2784   2.470       .  S
Zr2765     O2792   2.425       .  S
Zr2765     O2780   2.397       .  S
Zr2765     O2771   2.419       .  S
Zr2765     O2772   2.422       .  S
Zr2765     O2773   2.386       .  S
Zr2765     O2774   2.368       .  S
Zr2766     O2785   2.437       .  S
Zr2766     O2778   2.437       .  S
Zr2766     O2779   2.442       .  S
Zr2766     O2772   2.398       .  S
Zr2766     O2773   2.392       .  S
Zr2767     O2769   2.441       .  S
Zr2767     O2791   2.439       .  S
Zr2767     O2793   2.481       .  S
Zr2767     O2771   2.371       .  S
Zr2767     O2774   2.389       .  S
Zr2768     O2794   2.436       .  S
Zr2768     O2795   2.435       .  S
Zr2768     O2770   2.438       .  S
Zr2768     O2771   2.445       .  S
Zr2768     O2772   2.418       .  S
O2769      H2806   0.990   1_556  S
O2770      H2801   0.990       .  S
O2770      H2815   0.990       .  S
O2772      H2798   0.966       .  S
O2773     Zr2783   2.374       .  S
O2774     Zr2783   2.393       .  S
O2774      H2799   0.966       .  S
C2775      C4090   1.510       .  S
C2777      C4403   1.462       .  S
O2778      H2814   0.990       .  S
O2779      C2781   1.286       .  A
O2780      C2781   1.278       .  A
C2781      C4110   1.472       .  S
O2782      H2811   0.987       .  S
Zr2783     O2786   2.445       .  S
Zr2783     O2788   2.383       .  S
O2784      C2789   1.290       .  A
O2785      H2802   0.989       .  S
O2785      H2817   0.990       .  S
O2787      H2807   0.990       .  S
O2787      H2816   0.990       .  S
O2788      C2789   1.274       .  A
C2789      C4130   1.478       .  S
O2790      H2809   0.990       .  S
O2790      H2813   0.991       .  S
O2791      H2805   0.990       .  S
O2791      H2812   0.990       .  S
O2792      C2796   1.281       .  A
O2793      C2796   1.290       .  A
O2794      H2804   0.990       .  S
O2795      H2808   0.990       .  S
C2796      C4120   1.492       .  S
Zr2819     O2820   2.427       .  S
Zr2819     O2821   2.404       .  S
Zr2819     O2822   2.426       .  S
Zr2819     O2825   2.400       .  S
Zr2819     O2827   2.377       .  S
Zr2819     O2828   2.380       .  S
Zr2819     O2829   2.397       .  S
Zr2819     O2830   2.394       .  S
O2820      H2876   0.989       .  S
O2820      H2884   0.991       .  S
O2821      C2841   1.281       .  A
O2822      C2843   1.272       .  A
O2823     Zr2833   2.433       .  S
O2823      C2842   1.285       .  A
O2824     Zr2832   2.406       .  S
O2824      C2843   1.266       .  A
O2825      C2842   1.281       .  A
O2826     Zr2834   2.551       .  S
O2827     Zr2832   2.410       .  S
O2828     Zr2833   2.411       .  S
O2828      H2863   0.967       .  S
O2829     Zr2832   2.443       .  S
O2829     Zr2849   2.374       .  S
O2829      H2866   0.963       .  S
O2830     Zr2833   2.391       .  S
O2830     Zr2849   2.366       .  S
Zr2831     O2850   2.504       .  S
Zr2831     O2858   2.437       .  S
Zr2831     O2837   2.432   1_556  S
Zr2831     O2839   2.366       .  S
Zr2831     O2840   2.380       .  S
Zr2832     O2851   2.443       .  S
Zr2832     O2839   2.376       .  S
Zr2833     O2835   2.439       .  S
Zr2833     O2857   2.436       .  S
Zr2833     O2859   2.478       .  S
Zr2833     O2837   2.387   1_556  S
Zr2833     O2840   2.392       .  S
Zr2834     O2860   2.437       .  S
Zr2834     O2861   2.436       .  S
Zr2834     O2836   2.437       .  S
Zr2834     O2838   2.448       .  S
O2835      H2872   0.990       .  S
O2836      H2867   0.990       .  S
O2836      H2881   0.990       .  S
O2838      H2864   0.966       .  S
O2839     Zr2849   2.367       .  S
O2840     Zr2849   2.369       .  S
O2840      H2865   0.963       .  S
C2841      C4050   1.548   1_556  S
C2842      C4060   1.464       .  S
C2843      C4243   1.458       .  S
O2844      H2880   0.990       .  S
O2845      C2847   1.281       .  A
O2846      C2847   1.273       .  A
C2847      C4080   1.477       .  S
O2848     Zr2849   2.435       .  S
O2848      H2877   0.990       .  S
Zr2849     O2852   2.436       .  S
Zr2849     O2853   2.440       .  S
Zr2849     O2854   2.383       .  S
O2850      C2855   1.296       .  A
O2851      H2868   0.990       .  S
O2851      H2883   0.991       .  S
O2852      H2869   0.990       .  S
O2853      H2873   0.990       .  S
O2853      H2882   0.990       .  S
O2854      C2855   1.276       .  A
C2855      C4073   1.489       .  S
O2856      H2875   0.990       .  S
O2856      H2879   0.989       .  S
O2857      H2871   0.990       .  S
O2857      H2878   0.991       .  S
O2858      C2862   1.286       .  A
O2859      C2862   1.292       .  A
O2860      H2870   0.990       .  S
O2861      H2874   0.991       .  S
C2862      C4123   1.495       .  S
Zr2885     O2886   2.439       .  S
Zr2885     O2887   2.426       .  S
Zr2885     O2888   2.369       .  S
Zr2885     O2891   2.364       .  S
Zr2885     O2893   2.379       .  S
Zr2885     O2894   2.393       .  S
Zr2885     O2895   2.394       .  S
Zr2885     O2896   2.397       .  S
O2886      H2942   0.991       .  S
O2886      H2950   0.990       .  S
O2887      C2907   1.275       .  A
O2888      C2909   1.274       .  A
O2889     Zr2899   2.496       .  S
O2889      C2908   1.296       .  A
O2890     Zr2898   2.486       .  S
O2890      C2909   1.292       .  A
O2891      C2908   1.272       .  A
O2892     Zr2900   2.403       .  S
O2892      C2907   1.267       .  A
O2893     Zr2898   2.375       .  S
O2893     Zr2900   2.386       .  S
O2894     Zr2899   2.374       .  S
O2894     Zr2900   2.376       .  S
O2894      H2929   0.963       .  S
O2895     Zr2898   2.393       .  S
O2895     Zr2915   2.405       .  S
O2895      H2932   0.966       .  S
O2896     Zr2899   2.398       .  S
O2896     Zr2915   2.417       .  S
Zr2897     O2922   2.444       .  S
Zr2897     O2916   2.429       .  S
Zr2897     O2924   2.431       .  S
Zr2897     O2912   2.427       .  S
Zr2897     O2903   2.399       .  S
Zr2897     O2904   2.404       .  S
Zr2897     O2905   2.386       .  S
Zr2897     O2906   2.385       .  S
Zr2898     O2917   2.435       .  S
Zr2898     O2910   2.433       .  S
Zr2898     O2911   2.428       .  S
Zr2898     O2904   2.414       .  S
Zr2898     O2905   2.405       .  S
Zr2899     O2901   2.435       .  S
Zr2899     O2923   2.435       .  S
Zr2899     O2925   2.447       .  S
Zr2899     O2903   2.419       .  S
Zr2899     O2906   2.411       .  S
Zr2900     O2926   2.438       .  S
Zr2900     O2927   2.437       .  S
Zr2900     O2902   2.439       .  S
Zr2900     O2903   2.394       .  S
Zr2900     O2904   2.362       .  S
O2901      H2938   0.990       .  S
O2902      H2933   0.989       .  S
O2902      H2947   0.990       .  S
O2904      H2930   0.964       .  S
O2905     Zr2915   2.366       .  S
O2906     Zr2915   2.365       .  S
O2906      H2931   0.965       .  S
C2907      C4203   1.470       .  S
C2908      C4163   1.486       .  S
C2909      C2994   1.480       .  S
O2910      H2946   0.990       .  S
O2911      C2913   1.284       .  A
O2912      C2913   1.285       .  A
C2913      C4113   1.458       .  S
O2914     Zr2915   2.435       .  S
O2914      H2943   0.990       .  S
Zr2915     O2918   2.437       .  S
Zr2915     O2919   2.438       .  S
Zr2915     O2920   2.459       .  S
O2916      C2921   1.282       .  A
O2917      H2934   0.990       .  S
O2917      H2949   0.990       .  S
O2918      H2935   0.990       .  S
O2919      H2939   0.990       .  S
O2919      H2948   0.990       .  S
O2920      C2921   1.291       .  A
C2921      C4070   1.498       .  S
O2922      H2941   0.991       .  S
O2922      H2945   0.989       .  S
O2923      H2937   0.991       .  S
O2923      H2944   0.990       .  S
O2924      C2928   1.289       .  A
O2925      C2928   1.284       .  A
O2926      H2936   0.990       .  S
O2927      H2940   0.990       .  S
C2928      C2975   1.479       .  S
Zr2951     O2953   2.433       .  S
Zr2951     O2957   2.376       .  S
Zr2951     O2959   2.380       .  S
Zr2951     O2960   2.400       .  S
Zr2951     O2961   2.401       .  S
Zr2951     O2962   2.405       .  S
O2952      H3008   0.990       .  S
O2952      H3016   0.991       .  S
O2953      C2973   1.275       .  A
O2954      C2975   1.274       .  A
O2955     Zr2965   2.513       .  S
O2955      C2974   1.299       .  A
O2956      C2975   1.293       .  A
O2957      C2974   1.275       .  A
O2958     Zr2966   2.395       .  S
O2958      C2973   1.266       .  A
O2959     Zr2964   2.371       .  S
O2959     Zr2966   2.387       .  S
O2960     Zr2965   2.378       .  S
O2960     Zr2966   2.382       .  S
O2960      H2995   0.964       .  S
O2961     Zr2964   2.395       .  S
O2961     Zr2981   2.419       .  S
O2961      H2998   0.966       .  S
O2962     Zr2965   2.397       .  S
O2962     Zr2981   2.422       .  S
Zr2963     O2988   2.441       .  S
Zr2963     O2982   2.404       .  S
Zr2963     O2990   2.418       .  S
Zr2963     O2978   2.435       .  S
Zr2963     O2969   2.395       .  S
Zr2963     O2970   2.390       .  S
Zr2963     O2971   2.380       .  S
Zr2963     O2972   2.384       .  S
Zr2964     O2983   2.435       .  S
Zr2964     O2976   2.433       .  S
Zr2964     O2977   2.413       .  S
Zr2964     O2970   2.415       .  S
Zr2964     O2971   2.402       .  S
Zr2965     O2967   2.436       .  S
Zr2965     O2989   2.435       .  S
Zr2965     O2991   2.460       .  S
Zr2965     O2969   2.421       .  S
Zr2965     O2972   2.414       .  S
Zr2966     O2992   2.436       .  S
Zr2966     O2993   2.436       .  S
Zr2966     O2968   2.436       .  S
Zr2966     O2969   2.384       .  S
Zr2966     O2970   2.366       .  S
O2967      H3004   0.990       .  S
O2968      H2999   0.989       .  S
O2968      H3013   0.990       .  S
O2970      H2996   0.965       .  S
O2971     Zr2981   2.366       .  S
O2972     Zr2981   2.360       .  S
O2972      H2997   0.965       .  S
C2973      C4083   1.469       .  S
C2974      C4133   1.495       .  S
O2976      H3012   0.991       .  S
O2977      C2979   1.281       .  A
O2978      C2979   1.286       .  A
C2979      C4170   1.456       .  S
O2980     Zr2981   2.434       .  S
O2980      H3009   0.990       .  S
Zr2981     O2984   2.435       .  S
Zr2981     O2985   2.441       .  S
Zr2981     O2986   2.483       .  S
O2982      C2987   1.278       .  A
O2983      H3000   0.990       .  S
O2983      H3015   0.990       .  S
O2984      H3001   0.990       .  S
O2985      H3005   0.990       .  S
O2985      H3014   0.989       .  S
O2986      C2987   1.294       .  A
C2987      C4223   1.500       .  S
O2988      H3007   0.990       .  S
O2988      H3011   0.990       .  S
O2989      H3003   0.990       .  S
O2989      H3010   0.990       .  S
O2990      C2994   1.287       .  A
O2991      C2994   1.287       .  A
O2992      H3002   0.990       .  S
O2993      H3006   0.990       .  S
Zr3017     O3018   2.441       .  S
Zr3017     O3019   2.502       .  S
Zr3017     O3020   2.443       .  S
Zr3017     O3023   2.402       .  S
Zr3017     O3025   2.372       .  S
Zr3017     O3026   2.390       .  S
Zr3017     O3027   2.426       .  S
Zr3017     O3028   2.431       .  S
O3018      H3074   0.990       .  S
O3018      H3082   0.991       .  S
O3019      C3039   1.297       .  A
O3020      C3041   1.284       .  A
O3021     Zr3031   2.407       .  S
O3021      C3040   1.273       .  A
O3022     Zr3030   2.483       .  S
O3022      C3041   1.292       .  A
O3023      C3040   1.269       .  A
O3024     Zr3032   2.373       .  S
O3024      C3039   1.273       .  A
O3025     Zr3030   2.389       .  S
O3025     Zr3032   2.388       .  S
O3026     Zr3031   2.407       .  S
O3026     Zr3032   2.369       .  S
O3026      H3061   0.964       .  S
O3027     Zr3030   2.390       .  S
O3027     Zr3047   2.455       .  S
O3027      H3064   0.966       .  S
O3028     Zr3031   2.400       .  S
O3028     Zr3047   2.426       .  S
Zr3029     O3054   2.433       .  S
Zr3029     O3048   2.416       .  S
Zr3029     O3056   2.414       .  S
Zr3029     O3044   2.406       .  S
Zr3029     O3035   2.389       .  S
Zr3029     O3036   2.402       .  S
Zr3029     O3037   2.382       .  S
Zr3029     O3038   2.380       .  S
Zr3030     O3049   2.435       .  S
Zr3030     O3042   2.435       .  S
Zr3030     O3043   2.437       .  S
Zr3030     O3036   2.405       .  S
Zr3030     O3037   2.415       .  S
Zr3031     O3033   2.434       .  S
Zr3031     O3055   2.438       .  S
Zr3031     O3057   2.415       .  S
Zr3031     O3035   2.401       .  S
Zr3031     O3038   2.370       .  S
Zr3032     O3058   2.436       .  S
Zr3032     O3059   2.438       .  S
Zr3032     O3034   2.439       .  S
Zr3032     O3035   2.374       .  S
Zr3032     O3036   2.360       .  S
O3033      H3070   0.990       .  S
O3034      H3065   0.990       .  S
O3034      H3079   0.990       .  S
O3036      H3062   0.965       .  S
O3037     Zr3047   2.370       .  S
O3038     Zr3047   2.359       .  S
O3038      H3063   0.964       .  S
C3039      C4040   1.482       .  S
C3040      C4023   1.459       .  S
C3041      C4030   1.512       .  S
O3042      H3078   0.990       .  S
O3043      C3045   1.287       .  A
O3044      C3045   1.282       .  A
C3045      C4010   1.478       .  S
O3046     Zr3047   2.435       .  S
O3046      H3075   0.990       .  S
Zr3047     O3050   2.436       .  S
Zr3047     O3051   2.437       .  S
Zr3047     O3052   2.530       .  S
O3048      C3053   1.281       .  A
O3049      H3066   0.990       .  S
O3049      H3081   0.990       .  S
O3050      H3067   0.990       .  S
O3051      H3071   0.990       .  S
O3051      H3080   0.990       .  S
O3052      C3053   1.301       .  A
C3053      C4393   1.509       .  S
O3054      H3073   0.989       .  S
O3054      H3077   0.989       .  S
O3055      H3069   0.990       .  S
O3055      H3076   0.991       .  S
O3056      C3060   1.277       .  A
O3057      C3060   1.279       .  A
O3058      H3068   0.991       .  S
O3059      H3072   0.990       .  S
C3060      C4103   1.463       .  S
Zr3083     O3085   2.459       .  S
Zr3083     O3086   2.448       .  S
Zr3083     O3091   2.387       .  S
Zr3083     O3092   2.411       .  S
Zr3083     O3093   2.421       .  S
Zr3083     O3094   2.424       .  S
O3084      H3140   0.991       .  S
O3084      H3148   0.990       .  S
O3085      C3105   1.280       .  A
O3086      C3107   1.286       .  A
O3087     Zr3097   2.428       .  S
O3088     Zr3096   2.493       .  S
O3088      C3107   1.296       .  A
O3089      C3106   1.271       .  A
O3090     Zr3098   2.405       .  S
O3090      C3105   1.268       .  A
O3091     Zr3096   2.366       .  S
O3091     Zr3098   2.374       .  S
O3092     Zr3097   2.394       .  S
O3092     Zr3098   2.382       .  S
O3092      H3127   0.963       .  S
O3093     Zr3096   2.392       .  S
O3093      H3130   0.966       .  S
O3094     Zr3097   2.395       .  S
Zr3095     O3120   2.438       .  S
Zr3095     O3114   2.436       .  S
Zr3095     O3122   2.421       .  S
Zr3095     O3110   2.403       .  S
Zr3095     O3101   2.396       .  S
Zr3095     O3102   2.417       .  S
Zr3095     O3103   2.379       .  S
Zr3095     O3104   2.381       .  S
Zr3096     O3115   2.434       .  S
Zr3096     O3108   2.435       .  S
Zr3096     O3109   2.437       .  S
Zr3096     O3102   2.408       .  S
Zr3096     O3103   2.412       .  S
Zr3097     O3121   2.440       .  S
Zr3097     O3123   2.427       .  S
Zr3097     O3101   2.406       .  S
Zr3097     O3104   2.391       .  S
Zr3098     O3124   2.438       .  S
Zr3098     O3125   2.438       .  S
Zr3098     O3100   2.441       .  S
Zr3098     O3101   2.368       .  S
Zr3098     O3102   2.379       .  S
O3099      H3136   0.990       .  S
O3100      H3131   0.989       .  S
O3100      H3145   0.990       .  S
O3102      H3128   0.964       .  S
O3104      H3129   0.966       .  S
C3105      C3993   1.474       .  S
C3106      C4000   1.464       .  S
C3107      C4033   1.516       .  S
O3108      H3144   0.991       .  S
O3109      C3111   1.286       .  A
O3110      C3111   1.281       .  A
C3111      C3980   1.478       .  S
O3112     Zr3113   2.436       .  S
O3112      H3141   0.990       .  S
Zr3113     O3116   2.436       .  S
Zr3113     O3117   2.438       .  S
Zr3113     O3118   2.515       .  S
O3114      C3119   1.286       .  A
O3115      H3132   0.990       .  S
O3115      H3147   0.990       .  S
O3116      H3133   0.990       .  S
O3117      H3137   0.990       .  S
O3117      H3146   0.990       .  S
C3119      C4360   1.524       .  S
O3120      H3139   0.990       .  S
O3120      H3143   0.989       .  S
O3121      H3135   0.990       .  S
O3121      H3142   0.991       .  S
O3122      C3126   1.274       .  A
O3123      C3126   1.278       .  A
O3124      H3134   0.990       .  S
O3125      H3138   0.990       .  S
C3126      C4193   1.459       .  S
Zr3149     O3150   2.441       .  S
Zr3149     O3151   2.494       .  S
Zr3149     O3152   2.411       .  S
Zr3149     O3155   2.401       .  S
Zr3149     O3157   2.361       .  S
Zr3149     O3158   2.380       .  S
Zr3149     O3159   2.418       .  S
Zr3149     O3160   2.421       .  S
O3150      H3206   0.991       .  S
O3150      H3214   0.990       .  S
O3151      C3171   1.296       .  A
O3152      C3173   1.279       .  A
O3153     Zr3163   2.433       .  S
O3153      C3172   1.286       .  A
O3154     Zr3162   2.475       .  S
O3154      C3173   1.290       .  A
O3155      C3172   1.280       .  A
O3156     Zr3164   2.372       .  S
O3156      C3171   1.271       .  A
O3157     Zr3162   2.381       .  S
O3157     Zr3164   2.391       .  S
O3158     Zr3163   2.392       .  S
O3158     Zr3164   2.350       .  S
O3158      H3193   0.965       .  S
O3159     Zr3162   2.384       .  S
O3159     Zr3179   2.433       .  S
O3159      H3196   0.966       .  S
O3160     Zr3163   2.394       .  S
O3160     Zr3179   2.433       .  S
Zr3161     O3186   2.442       .  S
Zr3161     O3180   2.432       .  S
Zr3161     O3188   2.430       .  S
Zr3161     O3176   2.442       .  S
Zr3161     O3167   2.405       .  S
Zr3161     O3168   2.398       .  S
Zr3161     O3169   2.390       .  S
Zr3161     O3170   2.381       .  S
Zr3162     O3181   2.434   1_655  S
Zr3162     O3174   2.432       .  S
Zr3162     O3175   2.421       .  S
Zr3162     O3168   2.410       .  S
Zr3162     O3169   2.408       .  S
Zr3163     O3165   2.434       .  S
Zr3163     O3187   2.434       .  S
Zr3163     O3189   2.425       .  S
Zr3163     O3167   2.404       .  S
Zr3163     O3170   2.393       .  S
Zr3164     O3190   2.437       .  S
Zr3164     O3191   2.435       .  S
Zr3164     O3166   2.440       .  S
Zr3164     O3167   2.387       .  S
Zr3164     O3168   2.331       .  S
O3165      H3202   0.990       .  S
O3166      H3197   0.990       .  S
O3166      H3211   0.991       .  S
O3168      H3194   0.961       .  S
O3169     Zr3179   2.383       .  S
O3170     Zr3179   2.339       .  S
O3170      H3195   0.961       .  S
C3171      C3970   1.485       .  S
C3172      C3953   1.471       .  S
C3173      C3960   1.489       .  S
O3174      H3210   0.991       .  S
O3175      C3177   1.285       .  A
O3176      C3177   1.287       .  A
C3177      C3940   1.472       .  S
O3178     Zr3179   2.436       .  S
O3178      H3207   0.991       .  S
Zr3179     O3182   2.436   1_655  S
Zr3179     O3183   2.436       .  S
Zr3179     O3184   2.522       .  S
O3180      C3185   1.284       .  A
O3181      H3198   0.990       .  S
O3181      H3213   0.990       .  S
O3182      H3199   0.990       .  S
O3183      H3203   0.990       .  S
O3183      H3212   0.990       .  S
O3184      C3185   1.298       .  A
C3185      C4280   1.520   1_655  S
O3186      H3205   0.988       .  S
O3186      H3209   0.990       .  S
O3187      H3201   0.990       .  S
O3187      H3208   0.990       .  S
O3188      C3192   1.283       .  A
O3189      C3192   1.282       .  A
O3190      H3200   0.990       .  S
O3191      H3204   0.990       .  S
C3192      C4153   1.468       .  S
Zr3215     O3216   2.443       .  S
Zr3215     O3217   2.521       .  S
Zr3215     O3218   2.417       .  S
Zr3215     O3221   2.396       .  S
Zr3215     O3223   2.371       .  S
Zr3215     O3224   2.377       .  S
Zr3215     O3225   2.435       .  S
Zr3215     O3226   2.438       .  S
O3216      H3272   0.990       .  S
O3216      H3280   0.991       .  S
O3217      C3237   1.300       .  A
O3218      C3239   1.276       .  A
O3219     Zr3229   2.446       .  S
O3219      C3238   1.280       .  A
O3220     Zr3228   2.468       .  S
O3220      C3239   1.287       .  A
O3221      C3238   1.271       .  A
O3222     Zr3230   2.364       .  S
O3222      C3237   1.268       .  A
O3223     Zr3228   2.405       .  S
O3223     Zr3230   2.398       .  S
O3224     Zr3229   2.397       .  S
O3224     Zr3230   2.355       .  S
O3224      H3259   0.965       .  S
O3225     Zr3228   2.385       .  S
O3225     Zr3245   2.453       .  S
O3225      H3262   0.966       .  S
O3226     Zr3229   2.387       .  S
O3226     Zr3245   2.440       .  S
Zr3227     O3252   2.443       .  S
Zr3227     O3246   2.434       .  S
Zr3227     O3254   2.418       .  S
Zr3227     O3242   2.446       .  S
Zr3227     O3233   2.403       .  S
Zr3227     O3234   2.400       .  S
Zr3227     O3235   2.380       .  S
Zr3227     O3236   2.388       .  S
Zr3228     O3247   2.433   1_655  S
Zr3228     O3240   2.436   1_655  S
Zr3228     O3241   2.423   1_655  S
Zr3228     O3234   2.414       .  S
Zr3228     O3235   2.415       .  S
Zr3229     O3231   2.433       .  S
Zr3229     O3253   2.439       .  S
Zr3229     O3255   2.400       .  S
Zr3229     O3233   2.405       .  S
Zr3229     O3236   2.402       .  S
Zr3230     O3256   2.436       .  S
Zr3230     O3257   2.436       .  S
Zr3230     O3232   2.438       .  S
Zr3230     O3233   2.372       .  S
Zr3230     O3234   2.331       .  S
O3231      H3268   0.990       .  S
O3232      H3263   0.990       .  S
O3232      H3277   0.990       .  S
O3234      H3260   0.960       .  S
O3235     Zr3245   2.378       .  S
O3236     Zr3245   2.364       .  S
O3236      H3261   0.965       .  S
C3237      C3920   1.506       .  S
C3238      C3933   1.483       .  S
C3239      C3963   1.488       .  S
O3240      H3276   0.990       .  S
O3241      C3243   1.283       .  A
O3242      C3243   1.288   1_655  A
C3243      C3910   1.465       .  S
O3244     Zr3245   2.436       .  S
O3244      H3273   0.990       .  S
Zr3245     O3248   2.438   1_655  S
Zr3245     O3249   2.438       .  S
Zr3245     O3250   2.523       .  S
O3246      C3251   1.280       .  A
O3247      H3264   0.990       .  S
O3247      H3279   0.990       .  S
O3248      H3265   0.990       .  S
O3249      H3269   0.990       .  S
O3249      H3278   0.990       .  S
O3250      C3251   1.298       .  A
C3251      C4233   1.516       .  S
O3252      H3271   0.990       .  S
O3252      H3275   0.991       .  S
O3253      H3267   0.990       .  S
O3253      H3274   0.991       .  S
O3254      C3258   1.281       .  A
O3255      C3258   1.277       .  A
O3256      H3266   0.991       .  S
O3257      H3270   0.990       .  S
C3258      C4063   1.447       .  S
Zr3281     O3287   2.422       .  S
Zr3281     O3289   2.380       .  S
Zr3281     O3290   2.385       .  S
Zr3281     O3291   2.396       .  S
Zr3281     O3292   2.372       .  S
O3282      H3338   0.990       .  S
O3282      H3346   0.990       .  S
O3284      C3305   1.286       .  A
O3285     Zr3295   2.391       .  S
O3285      C3304   1.278       .  A
O3286      C3305   1.288       .  A
O3287      C3304   1.285       .  A
O3288     Zr3296   2.480       .  S
O3288      C3303   1.294       .  A
O3289     Zr3294   2.402       .  S
O3289     Zr3296   2.356       .  S
O3290     Zr3295   2.395       .  S
O3290     Zr3296   2.367       .  S
O3290      H3325   0.966       .  S
O3291     Zr3294   2.421       .  S
O3291     Zr3311   2.386       .  S
O3292     Zr3295   2.402       .  S
O3292     Zr3311   2.354       .  S
Zr3293     O3318   2.444       .  S
Zr3293     O3312   2.451       .  S
Zr3293     O3320   2.396       .  S
Zr3293     O3308   2.345       .  S
Zr3293     O3299   2.395       .  S
Zr3293     O3300   2.407       .  S
Zr3293     O3301   2.369       .  S
Zr3293     O3302   2.358       .  S
Zr3294     O3313   2.436       .  S
Zr3294     O3306   2.435       .  S
Zr3294     O3307   2.526       .  S
Zr3294     O3300   2.391       .  S
Zr3294     O3301   2.377       .  S
Zr3295     O3297   2.435       .  S
Zr3295     O3319   2.437       .  S
Zr3295     O3321   2.458       .  S
Zr3295     O3299   2.374       .  S
Zr3295     O3302   2.378       .  S
Zr3296     O3322   2.437       .  S
Zr3296     O3323   2.436       .  S
Zr3296     O3298   2.436       .  S
Zr3296     O3299   2.416       .  S
Zr3296     O3300   2.420       .  S
O3297      H3334   0.990       .  S
O3298      H3329   0.990       .  S
O3298      H3343   0.990       .  S
O3300      H3326   0.966       .  S
O3301     Zr3311   2.381       .  S
O3302     Zr3311   2.385       .  S
O3302      H3327   0.966       .  S
C3304      C4003   1.454       .  S
C3305      C3371   1.479       .  S
O3307      C3309   1.303       .  A
O3308      C3309   1.268       .  A
C3309      C3923   1.498       .  S
O3310     Zr3311   2.436       .  S
O3310      H3339   0.990       .  S
Zr3311     O3314   2.434       .  S
Zr3311     O3315   2.436       .  S
Zr3311     O3316   2.366       .  S
O3312      C3317   1.287       .  A
O3314      H3331   0.990       .  S
O3315      H3335   0.990       .  S
O3315      H3344   0.990       .  S
O3316      C3317   1.270       .  A
C3317      C3950   1.458       .  S
O3318      H3337   0.990       .  S
O3318      H3341   0.991       .  S
O3319      H3333   0.990       .  S
O3319      H3340   0.990       .  S
O3320      C3324   1.278       .  A
O3321      C3324   1.286       .  A
O3322      H3332   0.990       .  S
O3323      H3336   0.990       .  S
C3324      C3390   1.469       .  S
Zr3347     O3348   2.439       .  S
Zr3347     O3349   2.390       .  S
Zr3347     O3350   2.421       .  S
Zr3347     O3353   2.413       .  S
Zr3347     O3355   2.370       .  S
Zr3347     O3356   2.392       .  S
Zr3347     O3357   2.392       .  S
Zr3347     O3358   2.381       .  S
O3348      H3404   0.991       .  S
O3348      H3412   0.990       .  S
O3349      C3369   1.276       .  A
O3350      C3371   1.284       .  A
O3351     Zr3361   2.406       .  S
O3351      C3370   1.280       .  A
O3352     Zr3360   2.468       .  S
O3352      C3371   1.291       .  A
O3353      C3370   1.283       .  A
O3354     Zr3362   2.482       .  S
O3354      C3369   1.292       .  A
O3355     Zr3360   2.399       .  S
O3355     Zr3362   2.364       .  S
O3356     Zr3361   2.385       .  S
O3356     Zr3362   2.376       .  S
O3356      H3391   0.965       .  S
O3357     Zr3360   2.412       .  S
O3357     Zr3377   2.397       .  S
O3357      H3394   0.966       .  S
O3358     Zr3361   2.404       .  S
O3358     Zr3377   2.367       .  S
Zr3359     O3384   2.443       .  S
Zr3359     O3378   2.458       .  S
Zr3359     O3386   2.408       .  S
Zr3359     O3374   2.381       .  S
Zr3359     O3365   2.401       .  S
Zr3359     O3366   2.419       .  S
Zr3359     O3367   2.377       .  S
Zr3359     O3368   2.371       .  S
Zr3360     O3379   2.436       .  S
Zr3360     O3372   2.435       .  S
Zr3360     O3373   2.491       .  S
Zr3360     O3366   2.407       .  S
Zr3360     O3367   2.385       .  S
Zr3361     O3363   2.436       .  S
Zr3361     O3385   2.436       .  S
Zr3361     O3387   2.452       .  S
Zr3361     O3365   2.380       .  S
Zr3361     O3368   2.376       .  S
Zr3362     O3388   2.436       .  S
Zr3362     O3389   2.437       .  S
Zr3362     O3364   2.437       .  S
Zr3362     O3365   2.419       .  S
Zr3362     O3366   2.417       .  S
O3363      H3400   0.990       .  S
O3364      H3395   0.990       .  S
O3364      H3409   0.990       .  S
O3366      H3392   0.966       .  S
O3367     Zr3377   2.367       .  S
O3368     Zr3377   2.384       .  S
O3368      H3393   0.965       .  S
C3369      C3990   1.478       .  S
C3370      C4020   1.461       .  S
O3372      H3408   0.990       .  S
O3373      C3375   1.293       .  A
O3374      C3375   1.272       .  A
C3375      C3973   1.484       .  S
O3376     Zr3377   2.436       .  S
O3376      H3405   0.990       .  S
Zr3377     O3380   2.436       .  S
Zr3377     O3381   2.439       .  S
Zr3377     O3382   2.395       .  S
O3378      C3383   1.285       .  A
O3379      H3396   0.990       .  S
O3379      H3411   0.990       .  S
O3380      H3397   0.990       .  S
O3381      H3401   0.990       .  S
O3381      H3410   0.990       .  S
O3382      C3383   1.271       .  A
C3383      C3930   1.467       .  S
O3384      H3403   0.990       .  S
O3384      H3407   0.990       .  S
O3385      H3399   0.990       .  S
O3385      H3406   0.990       .  S
O3386      C3390   1.281       .  A
O3387      C3390   1.285       .  A
O3388      H3398   0.990       .  S
O3389      H3402   0.990       .  S
Zr3413     O3414   2.440       .  S
Zr3413     O3415   2.441       .  S
Zr3413     O3416   2.415       .  S
Zr3413     O3419   2.447       .  S
Zr3413     O3421   2.371       .  S
Zr3413     O3422   2.390       .  S
Zr3413     O3423   2.421       .  S
Zr3413     O3424   2.357       .  S
O3414      H3470   0.990       .  S
O3414      H3478   0.990       .  S
O3415      C3435   1.281       .  A
O3416      C3437   1.283       .  A
O3417     Zr3427   2.446   1_565  S
O3417      C3436   1.286       .  A
O3418     Zr3426   2.412       .  S
O3418      C3437   1.279       .  A
O3419      C3436   1.290   1_545  A
O3420     Zr3428   2.531       .  S
O3420      C3435   1.299       .  A
O3421     Zr3426   2.398       .  S
O3421     Zr3428   2.351       .  S
O3422     Zr3427   2.428       .  S
O3422     Zr3428   2.384       .  S
O3422      H3457   0.966   1_545  S
O3423     Zr3426   2.420       .  S
O3423     Zr3443   2.411       .  S
O3423      H3460   0.966       .  S
O3424     Zr3427   2.360       .  S
O3424     Zr3443   2.336       .  S
Zr3425     O3450   2.441       .  S
Zr3425     O3444   2.524       .  S
Zr3425     O3452   2.468       .  S
Zr3425     O3440   2.410       .  S
Zr3425     O3431   2.432       .  S
Zr3425     O3432   2.448       .  S
Zr3425     O3433   2.366       .  S
Zr3425     O3434   2.375       .  S
Zr3426     O3445   2.438       .  S
Zr3426     O3438   2.435       .  S
Zr3426     O3439   2.452       .  S
Zr3426     O3432   2.404       .  S
Zr3426     O3433   2.373       .  S
Zr3427     O3429   2.438   1_545  S
Zr3427     O3451   2.437   1_545  S
Zr3427     O3453   2.474       .  S
Zr3427     O3431   2.382       .  S
Zr3427     O3434   2.403       .  S
Zr3428     O3454   2.437       .  S
Zr3428     O3455   2.435       .  S
Zr3428     O3430   2.437       .  S
Zr3428     O3431   2.456       .  S
Zr3428     O3432   2.433       .  S
O3429      H3466   0.991       .  S
O3430      H3461   0.990       .  S
O3430      H3475   0.990       .  S
O3432      H3458   0.966       .  S
O3433     Zr3443   2.346       .  S
O3434     Zr3443   2.396       .  S
O3434      H3459   0.964       .  S
C3435      C4183   1.526       .  S
C3436      C4350   1.471       .  S
C3437      C3983   1.468       .  S
O3438      H3474   0.990       .  S
O3439      C3441   1.283       .  A
O3440      C3441   1.272       .  A
C3441      C3883   1.487       .  S
O3442     Zr3443   2.431       .  S
O3442      H3471   0.990       .  S
Zr3443     O3446   2.437       .  S
Zr3443     O3447   2.444       .  S
Zr3443     O3448   2.377       .  S
O3444      C3449   1.301       .  A
O3445      H3462   0.990       .  S
O3445      H3477   0.990       .  S
O3446      H3463   0.990       .  S
O3447      H3467   0.990       .  S
O3447      H3476   0.990       .  S
O3448      C3449   1.274       .  A
C3449      C3900   1.494       .  S
O3450      H3469   0.990       .  S
O3450      H3473   0.991       .  S
O3451      H3465   0.991       .  S
O3451      H3472   0.990       .  S
O3452      C3456   1.292       .  A
O3453      C3456   1.291       .  A
O3454      H3464   0.990   1_545  S
O3455      H3468   0.990       .  S
C3456      C3890   1.520       .  S
Zr3479     O3480   2.433       .  S
Zr3479     O3481   2.374       .  S
Zr3479     O3482   2.432       .  S
Zr3479     O3485   2.415       .  S
Zr3479     O3487   2.360       .  S
Zr3479     O3488   2.394       .  S
Zr3479     O3489   2.389       .  S
Zr3479     O3490   2.408       .  S
O3480      H3536   0.990       .  S
O3480      H3544   0.990       .  S
O3481      C3501   1.275       .  A
O3482      C3503   1.291       .  A
O3483     Zr3493   2.421       .  S
O3483      C3502   1.274       .  A
O3484     Zr3492   2.406       .  S
O3484      C3503   1.278       .  A
O3485      C3502   1.275       .  A
O3486     Zr3494   2.608   1_565  S
O3486      C3501   1.318   1_565  A
O3487     Zr3492   2.384       .  S
O3487     Zr3494   2.328       .  S
O3488     Zr3493   2.396       .  S
O3488     Zr3494   2.314       .  S
O3488      H3523   0.965   1_545  S
O3489     Zr3492   2.412       .  S
O3489     Zr3509   2.389       .  S
O3489      H3526   0.967       .  S
O3490     Zr3493   2.431       .  S
O3490     Zr3509   2.375       .  S
Zr3491     O3516   2.439       .  S
Zr3491     O3510   2.505       .  S
Zr3491     O3518   2.401       .  S
Zr3491     O3506   2.396       .  S
Zr3491     O3497   2.425       .  S
Zr3491     O3498   2.435       .  S
Zr3491     O3499   2.375       .  S
Zr3491     O3500   2.369       .  S
Zr3492     O3511   2.437       .  S
Zr3492     O3504   2.435       .  S
Zr3492     O3505   2.424       .  S
Zr3492     O3498   2.390       .  S
Zr3492     O3499   2.379       .  S
Zr3493     O3495   2.437       .  S
Zr3493     O3517   2.437   1_545  S
Zr3493     O3519   2.515       .  S
Zr3493     O3497   2.391       .  S
Zr3493     O3500   2.356       .  S
Zr3494     O3520   2.437   1_545  S
Zr3494     O3521   2.435   1_545  S
Zr3494     O3496   2.437       .  S
Zr3494     O3497   2.469       .  S
Zr3494     O3498   2.449       .  S
O3495      H3532   0.990   1_545  S
O3496      H3527   0.991   1_545  S
O3496      H3541   0.990       .  S
O3498      H3524   0.966       .  S
O3499     Zr3509   2.381       .  S
O3500     Zr3509   2.388       .  S
O3500      H3525   0.963       .  S
C3501      C4143   1.540   1_545  S
C3502      C4293   1.468   1_545  S
C3503      C3943   1.468       .  S
O3504      H3540   0.989       .  S
O3505      C3507   1.283       .  A
O3506      C3507   1.277       .  A
C3507      C3873   1.476       .  S
O3508     Zr3509   2.435       .  S
O3508      H3537   0.990       .  S
Zr3509     O3512   2.435       .  S
Zr3509     O3513   2.436       .  S
Zr3509     O3514   2.383       .  S
O3510      C3515   1.298       .  A
O3511      H3528   0.989       .  S
O3511      H3543   0.991       .  S
O3512      H3529   0.990       .  S
O3513      H3533   0.990       .  S
O3513      H3542   0.990       .  S
O3514      C3515   1.276       .  A
C3515      C3863   1.486       .  S
O3516      H3535   0.990       .  S
O3516      H3539   0.990       .  S
O3517      H3531   0.990       .  S
O3517      H3538   0.989       .  S
O3518      C3522   1.277       .  A
O3519      C3522   1.298       .  A
O3520      H3530   0.990       .  S
O3521      H3534   0.990       .  S
C3522      C3893   1.495       .  S
Zr3545     O3546   2.442       .  S
Zr3545     O3547   2.444       .  S
Zr3545     O3548   2.403       .  S
Zr3545     O3551   2.455   1_556  S
Zr3545     O3553   2.370       .  S
Zr3545     O3554   2.397       .  S
Zr3545     O3555   2.421       .  S
Zr3545     O3556   2.356       .  S
O3546      H3602   0.989       .  S
O3547      C3567   1.282       .  A
O3548      C3569   1.280       .  A
O3549     Zr3559   2.441   1_554  S
O3549      C3568   1.286       .  A
O3550     Zr3558   2.412       .  S
O3550      C3569   1.279       .  A
O3551      C3568   1.289       .  A
O3552     Zr3560   2.501       .  S
O3552      C3567   1.292       .  A
O3553     Zr3558   2.383       .  S
O3553     Zr3560   2.351       .  S
O3554     Zr3559   2.429       .  S
O3554     Zr3560   2.389       .  S
O3554      H3589   0.965       .  S
O3555     Zr3558   2.400       .  S
O3555     Zr3575   2.396       .  S
O3555      H3592   0.966       .  S
O3556     Zr3559   2.364       .  S
O3556     Zr3575   2.341       .  S
Zr3557     O3582   2.441       .  S
Zr3557     O3576   2.493       .  S
Zr3557     O3584   2.415       .  S
Zr3557     O3572   2.394       .  S
Zr3557     O3563   2.420       .  S
Zr3557     O3564   2.428       .  S
Zr3557     O3565   2.378       .  S
Zr3557     O3566   2.367       .  S
Zr3558     O3577   2.435       .  S
Zr3558     O3570   2.435       .  S
Zr3558     O3571   2.421       .  S
Zr3558     O3564   2.404       .  S
Zr3558     O3565   2.387       .  S
Zr3559     O3561   2.437       .  S
Zr3559     O3583   2.436       .  S
Zr3559     O3585   2.483       .  S
Zr3559     O3563   2.378       .  S
Zr3559     O3566   2.394       .  S
Zr3560     O3586   2.436       .  S
Zr3560     O3587   2.436       .  S
Zr3560     O3562   2.437       .  S
Zr3560     O3563   2.443       .  S
Zr3560     O3564   2.411       .  S
O3561      H3598   0.991   1_556  S
O3562      H3593   0.991       .  S
O3562      H3607   0.990       .  S
O3564      H3590   0.965       .  S
O3565     Zr3575   2.376       .  S
O3566     Zr3575   2.394       .  S
O3566      H3591   0.965       .  S
C3567      C4093   1.511       .  S
C3569      C4013   1.466       .  S
O3570      H3606   0.990       .  S
O3571      C3573   1.281       .  A
O3572      C3573   1.277       .  A
C3573      C3830   1.452       .  S
O3574      H3603   0.990       .  S
Zr3575     O3578   2.435   1_556  S
Zr3575     O3580   2.370   1_556  S
O3576      C3581   1.296       .  A
O3577      H3594   0.990       .  S
O3577      H3609   0.990       .  S
O3579      H3599   0.990       .  S
O3579      H3608   0.990       .  S
O3580      C3581   1.271   1_554  A
C3581      C3850   1.493   1_556  S
O3582      H3601   0.990       .  S
O3582      H3605   0.991       .  S
O3583      H3597   0.991       .  S
O3583      H3604   0.990       .  S
O3584      C3588   1.279       .  A
O3585      C3588   1.291       .  A
O3586      H3596   0.990       .  S
O3587      H3600   0.990       .  S
C3588      C3843   1.494       .  S
Zr3611     O3612   2.437       .  S
Zr3611     O3613   2.433       .  S
Zr3611     O3614   2.458       .  S
Zr3611     O3617   2.443       .  S
Zr3611     O3619   2.378   1_556  S
Zr3611     O3620   2.397       .  S
Zr3611     O3621   2.404       .  S
Zr3611     O3622   2.279       .  S
O3612      H3668   0.990       .  S
O3612      H3676   0.989       .  S
O3613      C3633   1.284   1_556  A
O3614      C3635   1.278       .  A
O3615     Zr3625   2.431       .  S
O3615      C3634   1.286       .  A
O3616     Zr3624   2.413   1_556  S
O3616      C3635   1.272       .  A
O3617      C3634   1.288       .  A
O3618     Zr3626   2.553       .  S
O3619     Zr3624   2.419       .  S
O3620     Zr3625   2.426       .  S
O3620      H3655   0.966       .  S
O3621     Zr3624   2.444   1_556  S
O3621     Zr3641   2.372       .  S
O3621      H3658   0.958       .  S
O3622     Zr3625   2.271       .  S
O3622     Zr3641   2.267       .  S
Zr3623     O3642   2.530   1_554  S
Zr3623     O3650   2.417   1_554  S
Zr3623     O3629   2.446       .  S
Zr3623     O3631   2.368   1_554  S
Zr3623     O3632   2.378   1_554  S
Zr3624     O3643   2.444       .  S
Zr3624     O3631   2.390   1_554  S
Zr3625     O3627   2.441       .  S
Zr3625     O3649   2.442       .  S
Zr3625     O3651   2.493       .  S
Zr3625     O3629   2.377   1_556  S
Zr3625     O3632   2.397       .  S
Zr3626     O3652   2.435       .  S
Zr3626     O3653   2.437       .  S
Zr3626     O3628   2.438       .  S
Zr3626     O3630   2.462       .  S
O3627      H3664   0.990       .  S
O3628      H3659   0.991       .  S
O3628      H3673   0.989       .  S
O3630      H3656   0.967       .  S
O3631     Zr3641   2.365       .  S
O3632     Zr3641   2.382       .  S
O3632      H3657   0.966       .  S
C3633      C4053   1.540       .  S
C3634      C4250   1.474       .  S
C3635      C3913   1.469       .  S
O3636      H3672   0.991       .  S
O3637      C3639   1.286       .  A
O3638      C3639   1.277       .  A
C3639      C3820   1.491       .  S
O3640     Zr3641   2.436       .  S
O3640      H3669   0.990       .  S
Zr3641     O3644   2.443       .  S
Zr3641     O3645   2.440       .  S
Zr3641     O3646   2.373       .  S
O3642      C3647   1.300       .  A
O3643      H3660   0.990       .  S
O3643      H3675   0.991       .  S
O3644      H3661   0.991       .  S
O3645      H3665   0.991       .  S
O3645      H3674   0.989       .  S
O3646      C3647   1.271       .  A
C3647      C3813   1.498       .  S
O3648      H3667   0.990       .  S
O3648      H3671   0.990       .  S
O3649      H3663   0.990       .  S
O3649      H3670   0.991       .  S
O3650      C3654   1.281       .  A
O3651      C3654   1.294       .  A
O3652      H3662   0.989       .  S
O3653      H3666   0.990       .  S
C3654      C3840   1.494       .  S
Zr3677     O3678   2.439       .  S
Zr3677     O3679   2.439       .  S
Zr3677     O3680   2.384       .  S
Zr3677     O3683   2.366       .  S
Zr3677     O3685   2.381       .  S
Zr3677     O3686   2.395       .  S
Zr3677     O3687   2.399       .  S
Zr3677     O3688   2.405       .  S
O3678      H3734   0.990       .  S
O3678      H3742   0.990       .  S
O3679      C3699   1.276       .  A
O3680      C3701   1.277       .  A
O3681     Zr3691   2.521       .  S
O3681      C3700   1.301       .  A
O3682     Zr3690   2.450       .  S
O3682      C3701   1.285       .  A
O3683      C3700   1.273       .  A
O3684     Zr3692   2.401       .  S
O3684      C3699   1.267       .  A
O3685     Zr3690   2.377       .  S
O3685     Zr3692   2.391       .  S
O3686     Zr3691   2.370       .  S
O3686     Zr3692   2.369       .  S
O3686      H3721   0.962       .  S
O3687     Zr3690   2.389       .  S
O3687     Zr3707   2.413       .  S
O3687      H3724   0.966       .  S
O3688     Zr3691   2.398       .  S
O3688     Zr3707   2.423       .  S
Zr3689     O3714   2.436       .  S
Zr3689     O3708   2.425       .  S
Zr3689     O3716   2.411       .  S
Zr3689     O3704   2.418       .  S
Zr3689     O3695   2.406       .  S
Zr3689     O3696   2.397       .  S
Zr3689     O3697   2.379       .  S
Zr3689     O3698   2.387       .  S
Zr3690     O3709   2.436       .  S
Zr3690     O3702   2.434       .  S
Zr3690     O3703   2.408       .  S
Zr3690     O3696   2.406       .  S
Zr3690     O3697   2.401       .  S
Zr3691     O3693   2.434       .  S
Zr3691     O3715   2.437       .  S
Zr3691     O3717   2.461       .  S
Zr3691     O3695   2.422       .  S
Zr3691     O3698   2.416       .  S
Zr3692     O3718   2.436       .  S
Zr3692     O3719   2.438       .  S
Zr3692     O3694   2.439       .  S
Zr3692     O3695   2.390       .  S
Zr3692     O3696   2.359       .  S
O3693      H3730   0.989       .  S
O3694      H3725   0.989       .  S
O3694      H3739   0.990       .  S
O3696      H3722   0.964       .  S
O3697     Zr3707   2.372       .  S
O3698     Zr3707   2.361       .  S
O3698      H3723   0.965       .  S
C3699      C3880   1.473       .  S
C3700      C3860   1.494       .  S
C3701      C3786   1.467       .  S
O3702      H3738   0.991       .  S
O3703      C3705   1.280       .  A
O3704      C3705   1.284       .  A
C3705      C3833   1.451       .  S
O3706     Zr3707   2.436       .  S
O3706      H3735   0.990       .  S
Zr3707     O3710   2.436       .  S
Zr3707     O3711   2.438       .  S
Zr3707     O3712   2.478       .  S
O3708      C3713   1.281       .  A
O3709      H3726   0.990       .  S
O3709      H3741   0.990       .  S
O3710      H3727   0.990       .  S
O3711      H3731   0.990       .  S
O3711      H3740   0.989       .  S
O3712      C3713   1.294       .  A
C3713      C3810   1.501       .  S
O3714      H3733   0.990       .  S
O3714      H3737   0.990       .  S
O3715      H3729   0.990       .  S
O3715      H3736   0.989       .  S
O3716      C3720   1.284       .  A
O3717      C3720   1.289       .  A
O3718      H3728   0.990       .  S
O3719      H3732   0.990       .  S
C3720      C3767   1.476       .  S
Zr3743     O3745   2.452       .  S
Zr3743     O3749   2.357       .  S
Zr3743     O3751   2.373       .  S
Zr3743     O3752   2.394       .  S
Zr3743     O3753   2.401       .  S
Zr3743     O3754   2.405       .  S
O3744      H3800   0.988       .  S
O3744      H3808   0.991       .  S
O3745      C3765   1.279       .  A
O3746      C3767   1.279       .  A
O3747     Zr3757   2.504       .  S
O3747      C3766   1.297       .  A
O3748      C3767   1.288       .  A
O3749      C3766   1.271       .  A
O3750     Zr3758   2.394       .  S
O3750      C3765   1.265       .  A
O3751     Zr3756   2.373       .  S
O3751     Zr3758   2.382       .  S
O3752     Zr3757   2.370       .  S
O3752     Zr3758   2.386       .  S
O3752      H3787   0.964       .  S
O3753     Zr3756   2.393       .  S
O3753     Zr3773   2.422       .  S
O3753      H3790   0.966       .  S
O3754     Zr3757   2.396       .  S
O3754     Zr3773   2.419       .  S
Zr3755     O3780   2.440       .  S
Zr3755     O3774   2.407       .  S
Zr3755     O3782   2.398       .  S
Zr3755     O3770   2.407       .  S
Zr3755     O3761   2.387       .  S
Zr3755     O3762   2.387       .  S
Zr3755     O3763   2.377       .  S
Zr3755     O3764   2.380       .  S
Zr3756     O3775   2.436       .  S
Zr3756     O3768   2.435       .  S
Zr3756     O3769   2.421       .  S
Zr3756     O3762   2.410       .  S
Zr3756     O3763   2.402       .  S
Zr3757     O3759   2.435       .  S
Zr3757     O3781   2.438       .  S
Zr3757     O3783   2.451       .  S
Zr3757     O3761   2.415       .  S
Zr3757     O3764   2.410       .  S
Zr3758     O3784   2.436       .  S
Zr3758     O3785   2.435       .  S
Zr3758     O3760   2.434       .  S
Zr3758     O3761   2.389       .  S
Zr3758     O3762   2.371       .  S
O3759      H3796   0.990       .  S
O3760      H3791   0.990       .  S
O3760      H3805   0.990       .  S
O3762      H3788   0.966       .  S
O3763     Zr3773   2.366       .  S
O3764     Zr3773   2.357       .  S
O3764      H3789   0.966       .  S
C3765      C3823   1.480       .  S
C3766      C3853   1.486       .  S
O3768      H3804   0.990       .  S
O3769      C3771   1.283       .  A
O3770      C3771   1.282       .  A
C3771      C3870   1.454       .  S
O3772     Zr3773   2.437       .  S
O3772      H3801   0.990       .  S
Zr3773     O3776   2.434       .  S
Zr3773     O3777   2.437       .  S
Zr3773     O3778   2.489       .  S
O3774      C3779   1.278       .  A
O3775      H3792   0.989       .  S
O3775      H3807   0.990       .  S
O3776      H3793   0.989       .  S
O3777      H3797   0.990       .  S
O3777      H3806   0.990       .  S
O3778      C3779   1.296       .  A
C3779      C3903   1.508       .  S
O3780      H3799   0.990       .  S
O3780      H3803   0.990       .  S
O3781      H3795   0.990       .  S
O3781      H3802   0.990       .  S
O3782      C3786   1.282       .  A
O3783      C3786   1.287       .  A
O3784      H3794   0.990       .  S
O3785      H3798   0.990       .  S
C3809      C3810   1.418       .  A
C3809      C3814   1.418       .  A
C3809      F3816   1.358       .  S
C3810      C3811   1.402       .  A
C3811      C3812   1.399       .  A
C3811      F3818   1.358       .  S
C3812      C3813   1.413       .  A
C3812      F3817   1.357       .  S
C3813      C3814   1.409       .  A
C3814      F3815   1.357       .  S
C3819      C3824   1.402       .  A
C3819      F3826   1.357       .  S
C3820      C3821   1.411       .  A
C3821      C3822   1.398       .  A
C3821      F3828   1.358       .  S
C3822      C3823   1.408       .  A
C3822      F3827   1.358       .  S
C3824      F3825   1.356       .  S
C3829      C3830   1.399       .  A
C3829      C3834   1.389       .  A
C3829      F3836   1.358       .  S
C3830      C3831   1.408       .  A
C3831      C3832   1.390       .  A
C3831      F3838   1.358       .  S
C3832      C3833   1.399       .  A
C3832      F3837   1.358       .  S
C3833      C3834   1.405       .  A
C3834      F3835   1.358       .  S
C3839      C3840   1.411       .  A
C3839      C3844   1.407       .  A
C3840      C3841   1.408       .  A
C3841      C3842   1.408       .  A
C3841      F3848   1.358       .  S
C3842      C3843   1.411       .  A
C3842      F3847   1.358       .  S
C3843      C3844   1.407       .  A
C3844      F3845   1.358   1_556  S
C3849      C3850   1.401   1_556  A
C3849      F3856   1.358       .  S
C3850      C3851   1.422       .  A
C3851      F3858   1.358       .  S
C3852      C3853   1.398       .  A
C3852      F3857   1.358       .  S
C3853      C3854   1.417       .  A
C3854      F3855   1.359       .  S
C3859      C3860   1.422       .  A
C3859      C3864   1.402       .  A
C3859      F3866   1.357       .  S
C3860      C3861   1.399       .  A
C3861      C3862   1.405       .  A
C3861      F3868   1.357       .  S
C3862      C3863   1.418       .  A
C3862      F3867   1.358       .  S
C3863      C3864   1.397       .  A
C3864      F3865   1.358       .  S
C3869      C3870   1.400       .  A
C3869      C3874   1.394       .  A
C3869      F3876   1.358       .  S
C3870      C3871   1.398       .  A
C3871      C3872   1.390       .  A
C3871      F3878   1.358       .  S
C3872      C3873   1.414       .  A
C3872      F3877   1.358       .  S
C3873      C3874   1.410       .  A
C3874      F3875   1.358       .  S
C3879      C3880   1.402       .  A
C3879      C3884   1.390       .  A
C3879      F3886   1.356       .  S
C3880      C3881   1.406       .  A
C3881      C3882   1.402       .  A
C3881      F3888   1.358       .  S
C3882      C3883   1.409       .  A
C3882      F3887   1.357       .  S
C3883      C3884   1.413       .  A
C3884      F3885   1.357       .  S
C3889      C3890   1.419       .  A
C3889      C3894   1.411       .  A
C3889      F3896   1.357   1_545  S
C3890      C3891   1.416       .  A
C3891      C3892   1.412       .  A
C3891      F3898   1.357       .  S
C3892      C3893   1.408       .  A
C3892      F3897   1.357       .  S
C3893      C3894   1.405       .  A
C3894      F3895   1.358   1_545  S
C3899      C3900   1.401       .  A
C3899      C3904   1.412       .  A
C3899      F3906   1.357       .  S
C3900      C3901   1.415       .  A
C3901      C3902   1.401       .  A
C3901      F3908   1.359       .  S
C3902      C3903   1.406       .  A
C3902      F3907   1.358       .  S
C3903      C3904   1.423       .  A
C3904      F3905   1.357       .  S
C3909      C3910   1.412       .  A
C3909      C3914   1.389       .  A
C3909      F3916   1.357   1_455  S
C3910      C3911   1.401       .  A
C3911      C3912   1.396       .  A
C3911      F3918   1.358       .  S
C3912      C3913   1.414       .  A
C3912      F3917   1.358       .  S
C3913      C3914   1.396       .  A
C3914      F3915   1.358   1_455  S
C3919      C3920   1.429       .  A
C3919      C3924   1.405       .  A
C3919      F3926   1.358       .  S
C3920      C3921   1.402       .  A
C3921      C3922   1.402       .  A
C3921      F3928   1.358       .  S
C3922      C3923   1.423       .  A
C3922      F3927   1.359       .  S
C3923      C3924   1.397       .  A
C3924      F3925   1.358       .  S
C3929      C3930   1.405       .  A
C3929      C3934   1.399       .  A
C3929      F3936   1.358       .  S
C3930      C3931   1.402       .  A
C3931      C3932   1.394       .  A
C3931      F3938   1.357       .  S
C3932      C3933   1.411       .  A
C3932      F3937   1.357       .  S
C3933      C3934   1.411       .  A
C3934      F3935   1.358       .  S
C3939      C3940   1.418   1_455  A
C3939      C3944   1.396       .  A
C3939      F3946   1.356       .  S
C3940      C3941   1.412   1_655  A
C3941      C3942   1.401       .  A
C3941      F3948   1.357   1_455  S
C3942      C3943   1.404       .  A
C3942      F3947   1.352       .  S
C3943      C3944   1.394       .  A
C3944      F3945   1.357       .  S
C3949      C3950   1.401       .  A
C3949      C3954   1.392       .  A
C3949      F3956   1.358       .  S
C3950      C3951   1.404       .  A
C3951      C3952   1.393       .  A
C3951      F3958   1.358       .  S
C3952      C3953   1.408       .  A
C3952      F3957   1.358       .  S
C3953      C3954   1.409       .  A
C3954      F3955   1.358       .  S
C3959      C3960   1.411       .  A
C3959      C3964   1.404       .  A
C3959      F3966   1.358       .  S
C3960      C3961   1.406       .  A
C3961      C3962   1.406       .  A
C3961      F3968   1.358       .  S
C3962      C3963   1.411       .  A
C3962      F3967   1.358       .  S
C3963      C3964   1.405       .  A
C3964      F3965   1.358       .  S
C3969      C3970   1.398       .  A
C3969      C3974   1.395       .  A
C3969      F3976   1.358       .  S
C3970      C3971   1.420       .  A
C3971      C3972   1.404       .  A
C3971      F3978   1.358       .  S
C3972      C3973   1.400       .  A
C3972      F3977   1.358       .  S
C3973      C3974   1.415       .  A
C3974      F3975   1.355       .  S
C3979      C3980   1.411       .  A
C3979      C3984   1.388       .  A
C3979      F3986   1.358       .  S
C3980      C3981   1.410       .  A
C3981      C3982   1.394       .  A
C3981      F3988   1.357       .  S
C3982      C3983   1.405       .  A
C3982      F3987   1.357       .  S
C3983      C3984   1.403       .  A
C3984      F3985   1.359       .  S
C3989      C3990   1.403       .  A
C3989      C3994   1.405       .  A
C3989      F3996   1.357       .  S
C3990      C3991   1.409       .  A
C3991      C3992   1.396       .  A
C3991      F3998   1.359       .  S
C3992      C3993   1.403       .  A
C3992      F3997   1.358       .  S
C3993      C3994   1.410       .  A
C3994      F3995   1.356       .  S
C3999      C4000   1.410       .  A
C3999      C4004   1.387       .  A
C3999      F4006   1.358       .  S
C4001      F4008   1.357       .  S
C4002      C4003   1.404       .  A
C4003      C4004   1.400       .  A
C4004      F4005   1.359       .  S
C4009      C4010   1.412       .  A
C4009      F4016   1.358       .  S
C4011      C4012   1.393       .  A
C4012      C4013   1.406       .  A
C4012      F4017   1.358       .  S
C4013      C4014   1.406       .  A
C4014      F4015   1.359       .  S
C4019      C4020   1.406       .  A
C4019      C4024   1.393       .  A
C4019      F4026   1.358       .  S
C4020      C4021   1.405       .  A
C4021      C4022   1.385       .  A
C4021      F4028   1.358       .  S
C4022      C4023   1.405       .  A
C4022      F4027   1.358       .  S
C4023      C4024   1.404       .  A
C4024      F4025   1.358       .  S
C4029      C4030   1.413       .  A
C4029      C4034   1.411       .  A
C4029      F4036   1.357       .  S
C4030      C4031   1.410       .  A
C4031      C4032   1.415       .  A
C4031      F4038   1.358       .  S
C4032      C4033   1.417       .  A
C4032      F4037   1.358       .  S
C4033      C4034   1.412       .  A
C4034      F4035   1.357       .  S
C4039      C4040   1.399       .  A
C4039      C4044   1.404       .  A
C4039      F4046   1.358       .  S
C4040      C4041   1.412       .  A
C4041      C4042   1.404       .  A
C4041      F4048   1.359       .  S
C4042      C4043   1.407       .  A
C4042      F4047   1.358       .  S
C4043      C4044   1.419       .  A
C4049      C4054   1.408       .  A
C4049      F4056   1.356       .  S
C4050      C4051   1.421       .  A
C4051      C4052   1.439       .  A
C4051      F4058   1.357       .  S
C4052      C4053   1.423   1_655  A
C4052      F4057   1.356       .  S
C4054      F4055   1.358   1_655  S
C4059      C4060   1.405       .  A
C4059      C4064   1.391       .  A
C4059      F4066   1.358       .  S
C4060      C4061   1.409       .  A
C4061      C4062   1.388       .  A
C4061      F4068   1.357       .  S
C4062      C4063   1.397       .  A
C4062      F4067   1.359       .  S
C4063      C4064   1.401       .  A
C4064      F4065   1.359       .  S
C4069      C4070   1.403       .  A
C4069      C4074   1.391       .  A
C4069      F4076   1.358       .  S
C4070      C4071   1.420       .  A
C4071      C4072   1.418       .  A
C4071      F4078   1.357       .  S
C4072      C4073   1.407       .  A
C4072      F4077   1.357       .  S
C4073      C4074   1.409       .  A
C4074      F4075   1.358       .  S
C4079      C4080   1.407       .  A
C4079      C4084   1.393       .  A
C4079      F4086   1.358       .  S
C4080      C4081   1.412       .  A
C4081      C4082   1.393       .  A
C4082      C4083   1.404       .  A
C4083      C4084   1.405       .  A
C4084      F4085   1.358       .  S
C4089      C4090   1.410       .  A
C4089      C4094   1.416       .  A
C4089      F4096   1.355       .  S
C4090      C4091   1.408       .  A
C4091      C4092   1.417       .  A
C4091      F4098   1.357       .  S
C4092      C4093   1.412       .  A
C4092      F4097   1.354       .  S
C4093      C4094   1.407       .  A
C4094      F4095   1.357       .  S
C4099      C4100   1.415       .  A
C4099      C4104   1.391       .  A
C4100      C4101   1.411       .  A
C4101      C4102   1.393       .  A
C4101      F4108   1.357       .  S
C4102      C4103   1.403       .  A
C4102      F4107   1.359       .  S
C4103      C4104   1.402       .  A
C4104      F4105   1.359       .  S
C4109      C4110   1.411       .  A
C4109      C4114   1.392       .  A
C4109      F4116   1.357       .  S
C4110      C4111   1.405       .  A
C4111      C4112   1.397       .  A
C4111      F4118   1.358       .  S
C4112      C4113   1.405       .  A
C4112      F4117   1.358       .  S
C4113      C4114   1.396       .  A
C4114      F4115   1.358       .  S
C4119      C4120   1.408       .  A
C4119      C4124   1.408       .  A
C4119      F4126   1.358       .  S
C4120      C4121   1.408       .  A
C4121      C4122   1.408       .  A
C4121      F4128   1.357   1_556  S
C4122      C4123   1.410       .  A
C4123      C4124   1.410       .  A
C4124      F4125   1.358       .  S
C4129      C4134   1.411       .  A
C4129      F4136   1.358       .  S
C4130      C4131   1.399       .  A
C4131      C4132   1.397       .  A
C4131      F4138   1.358       .  S
C4132      F4137   1.358       .  S
C4133      C4134   1.408       .  A
C4134      F4135   1.358       .  S
C4139      C4140   1.422       .  A
C4139      C4144   1.439   1_655  A
C4139      F4146   1.357       .  S
C4140      C4141   1.408       .  A
C4141      C4142   1.406   1_655  A
C4141      F4148   1.358       .  S
C4142      C4143   1.417       .  A
C4142      F4147   1.352       .  S
C4143      C4144   1.421       .  A
C4144      F4145   1.356       .  S
C4149      C4150   1.410       .  A
C4149      C4154   1.401       .  A
C4149      F4156   1.357       .  S
C4150      C4151   1.398       .  A
C4151      C4152   1.386       .  A
C4151      F4158   1.359       .  S
C4152      C4153   1.408   1_565  A
C4152      F4157   1.349       .  S
C4153      C4154   1.404   1_545  A
C4154      F4155   1.357   1_565  S
C4159      C4160   1.415       .  A
C4159      C4164   1.401       .  A
C4159      F4166   1.358       .  S
C4160      C4161   1.393       .  A
C4161      C4162   1.397       .  A
C4161      F4168   1.358       .  S
C4162      C4163   1.421       .  A
C4162      F4167   1.357       .  S
C4163      C4164   1.399       .  A
C4164      F4165   1.358       .  S
C4169      C4170   1.395       .  A
C4169      C4174   1.395       .  A
C4169      F4176   1.358       .  S
C4170      C4171   1.400       .  A
C4171      C4172   1.395       .  A
C4171      F4178   1.358       .  S
C4172      C4173   1.411       .  A
C4172      F4177   1.358       .  S
C4173      C4174   1.417       .  A
C4174      F4175   1.358       .  S
C4179      C4180   1.413       .  A
C4179      C4184   1.421       .  A
C4179      F4186   1.357       .  S
C4180      C4181   1.414   1_545  A
C4181      C4182   1.422       .  A
C4181      F4188   1.357       .  S
C4182      C4183   1.415   1_565  A
C4182      F4187   1.357       .  S
C4183      C4184   1.415       .  A
C4184      F4185   1.357       .  S
C4189      C4190   1.409       .  A
C4189      C4194   1.383       .  A
C4189      F4196   1.357   1_545  S
C4190      C4191   1.402       .  A
C4191      C4192   1.401       .  A
C4191      F4198   1.357       .  S
C4192      C4193   1.409       .  A
C4192      F4197   1.358       .  S
C4193      C4194   1.398       .  A
C4194      F4195   1.360       .  S
C4199      C4200   1.408       .  A
C4199      C4204   1.400       .  A
C4199      F4206   1.358       .  S
C4200      C4201   1.408       .  A
C4201      C4202   1.384       .  A
C4201      F4208   1.358       .  S
C4202      C4203   1.403       .  A
C4202      F4207   1.353       .  S
C4203      C4204   1.406       .  A
C4204      F4205   1.357       .  S
C4209      C4210   1.418       .  A
C4209      C4214   1.415       .  A
C4209      F4216   1.358       .  S
C4210      C4211   1.411       .  A
C4211      C4212   1.406       .  A
C4211      F4218   1.357       .  S
C4212      C4213   1.409       .  A
C4212      F4217   1.358       .  S
C4213      C4214   1.408       .  A
C4214      F4215   1.358       .  S
C4219      C4220   1.401       .  A
C4219      C4224   1.409       .  A
C4219      F4226   1.357       .  S
C4220      C4221   1.412       .  A
C4221      C4222   1.401       .  A
C4221      F4228   1.359       .  S
C4222      C4223   1.405       .  A
C4222      F4227   1.358       .  S
C4223      C4224   1.420       .  A
C4224      F4225   1.357       .  S
C4229      C4230   1.412       .  A
C4229      C4234   1.417       .  A
C4229      F4236   1.357       .  S
C4230      C4231   1.415   1_655  A
C4231      C4232   1.422       .  A
C4231      F4238   1.358       .  S
C4232      C4233   1.412   1_455  A
C4232      F4237   1.357       .  S
C4233      C4234   1.412       .  A
C4234      F4235   1.358       .  S
C4239      C4240   1.405       .  A
C4239      C4244   1.396       .  A
C4239      F4246   1.357       .  S
C4240      C4241   1.412       .  A
C4241      C4242   1.384       .  A
C4241      F4248   1.356       .  S
C4242      C4243   1.396       .  A
C4242      F4247   1.358       .  S
C4243      C4244   1.409       .  A
C4244      F4245   1.358       .  S
C4249      C4250   1.406       .  A
C4249      C4254   1.393       .  A
C4249      F4256   1.357       .  S
C4250      C4251   1.412       .  A
C4251      C4252   1.392       .  A
C4251      F4258   1.358       .  S
C4252      C4253   1.403       .  A
C4252      F4257   1.359       .  S
C4253      C4254   1.408       .  A
C4254      F4255   1.357       .  S
C4259      C4260   1.405       .  A
C4259      C4264   1.405       .  A
C4259      F4266   1.357       .  S
C4260      C4261   1.427       .  A
C4261      C4262   1.411       .  A
C4261      F4268   1.358       .  S
C4262      C4263   1.401       .  A
C4262      F4267   1.358       .  S
C4263      C4264   1.416       .  A
C4264      F4265   1.356       .  S
C4269      C4270   1.409       .  A
C4269      C4274   1.389       .  A
C4269      F4276   1.355       .  S
C4270      C4271   1.397       .  A
C4271      C4272   1.396       .  A
C4271      F4278   1.358       .  S
C4272      C4273   1.420       .  A
C4272      F4277   1.358       .  S
C4273      C4274   1.401       .  A
C4274      F4275   1.358       .  S
C4279      C4280   1.418   1_665  A
C4279      C4284   1.432       .  A
C4279      F4286   1.357   1_565  S
C4280      C4281   1.402   1_545  A
C4281      C4282   1.405       .  A
C4281      F4288   1.353   1_565  S
C4282      C4283   1.415       .  A
C4282      F4287   1.350       .  S
C4283      C4284   1.420   1_455  A
C4284      F4285   1.356       .  S
C4289      C4290   1.412       .  A
C4289      C4294   1.400       .  A
C4289      F4296   1.357       .  S
C4290      C4291   1.395       .  A
C4291      C4292   1.378       .  A
C4291      F4298   1.357       .  S
C4292      C4293   1.408       .  A
C4292      F4297   1.352       .  S
C4293      C4294   1.403       .  A
C4294      F4295   1.357       .  S
C4299      C4300   1.412       .  A
C4299      C4304   1.396       .  A
C4299      F4306   1.357       .  S
C4300      C4301   1.412       .  A
C4301      C4302   1.398       .  A
C4301      F4308   1.357   1_655  S
C4302      C4303   1.404       .  A
C4302      F4307   1.357       .  S
C4303      C4304   1.398       .  A
C4304      F4305   1.357       .  S
C4309      C4310   1.409       .  A
C4309      C4314   1.391       .  A
C4309      F4316   1.358       .  S
C4310      C4311   1.404       .  A
C4311      C4312   1.399       .  A
C4311      F4318   1.356       .  S
C4312      C4313   1.407       .  A
C4312      F4317   1.359       .  S
C4313      C4314   1.398       .  A
C4314      F4315   1.358       .  S
C4319      C4320   1.412   1_655  A
C4319      C4324   1.411       .  A
C4319      F4326   1.357       .  S
C4320      C4321   1.408       .  A
C4321      C4322   1.410       .  A
C4321      F4328   1.358       .  S
C4322      C4323   1.412       .  A
C4322      F4327   1.357       .  S
C4323      C4324   1.407   1_455  A
C4324      F4325   1.357       .  S
C4329      C4330   1.420       .  A
C4329      C4334   1.402       .  A
C4329      F4336   1.357       .  S
C4330      C4331   1.401       .  A
C4331      C4332   1.397       .  A
C4331      F4338   1.358       .  S
C4332      C4333   1.418       .  A
C4332      F4337   1.358       .  S
C4333      C4334   1.402       .  A
C4334      F4335   1.358       .  S
C4339      C4340   1.408       .  A
C4339      C4344   1.390       .  A
C4339      F4346   1.357       .  S
C4340      C4341   1.404       .  A
C4341      C4342   1.389       .  A
C4341      F4348   1.358       .  S
C4342      C4343   1.410       .  A
C4342      F4347   1.358       .  S
C4343      C4344   1.405       .  A
C4344      F4345   1.358       .  S
C4349      C4350   1.410   1_545  A
C4349      C4354   1.389   1_545  A
C4349      F4356   1.358       .  S
C4350      C4351   1.407       .  A
C4351      C4352   1.399       .  A
C4351      F4358   1.358       .  S
C4352      C4353   1.407       .  A
C4352      F4357   1.357       .  S
C4353      C4354   1.403       .  A
C4354      F4355   1.359   1_565  S
C4359      C4360   1.418       .  A
C4359      C4364   1.429   1_545  A
C4359      F4366   1.357       .  S
C4360      C4361   1.410       .  A
C4361      C4362   1.406   1_545  A
C4362      C4363   1.419       .  A
C4363      C4364   1.417       .  A
C4364      F4365   1.357       .  S
C4369      C4370   1.410       .  A
C4369      C4374   1.398       .  A
C4369      F4376   1.358       .  S
C4370      C4371   1.400       .  A
C4371      C4372   1.402       .  A
C4371      F4378   1.358       .  S
C4372      C4373   1.416       .  A
C4372      F4377   1.358       .  S
C4373      C4374   1.404       .  A
C4374      F4375   1.358       .  S
C4379      C4380   1.404       .  A
C4379      C4384   1.391       .  A
C4380      C4381   1.402       .  A
C4381      C4382   1.392       .  A
C4381      F4388   1.358       .  S
C4382      C4383   1.410       .  A
C4382      F4387   1.358       .  S
C4383      C4384   1.407       .  A
C4384      F4385   1.358   1_556  S
C4389      C4390   1.411       .  A
C4389      C4394   1.425       .  A
C4389      F4396   1.357       .  S
C4390      C4391   1.416       .  A
C4391      C4392   1.408       .  A
C4391      F4398   1.358       .  S
C4392      C4393   1.404       .  A
C4392      F4397   1.358       .  S
C4393      C4394   1.419       .  A
C4394      F4395   1.357       .  S
C4399      C4400   1.400       .  A
C4399      F4406   1.359       .  S
C4401      C4402   1.395       .  A
C4401      F4408   1.358       .  S
C4402      C4403   1.405       .  A
C4402      F4407   1.358       .  S
C4403      C4404   1.407       .  A
C4404      F4405   1.357       .  S
C4409      C4410   1.406       .  A
C4409      C4414   1.389       .  A
C4409      F4416   1.358       .  S
C4410      C4411   1.411       .  A
C4411      C4412   1.382       .  A
C4411      F4418   1.357       .  S
C4412      C4413   1.395       .  A
C4413      C4414   1.403       .  A
C4414      F4415   1.359       .  S
C4419      C4420   1.405       .  A
C4419      C4424   1.387       .  A
C4419      F4426   1.359       .  S
C4420      C4421   1.403       .  A
C4421      C4422   1.387       .  A
C4421      F4428   1.359       .  S
C4422      C4423   1.407       .  A
C4422      F4427   1.358       .  S
C4423      C4424   1.406       .  A
C4424      F4425   1.358       .  S
C4429      C4430   1.412       .  A
C4429      C4434   1.415       .  A
C4429      F4436   1.358       .  S
C4430      C4431   1.411       .  A
C4431      C4432   1.415       .  A
C4431      F4438   1.358       .  S
C4432      C4433   1.414       .  A
C4432      F4437   1.357       .  S
C4433      C4434   1.413       .  A
C4434      F4435   1.357       .  S
C4439      C4440   1.403       .  A
C4439      C4444   1.413       .  A
C4439      F4446   1.358       .  S
C4440      C4441   1.411       .  A
C4441      C4442   1.408       .  A
C4441      F4448   1.358       .  S
C4442      C4443   1.409       .  A
C4443      C4444   1.422       .  A
C4444      F4445   1.358       .  S
