geometry optimzed in LAMMPS
_audit_creation_date              2020-11-30 
_audit_creation_method            'lammps2cif' 
_symmetry_space_group_name_H-M    'P1' 
_symmetry_Int_Tables_number       1 
_symmetry_cell_setting            triclinic 
loop_ 
_symmetry_equiv_pos_as_xyz 
  x,y,z 
_cell_length_a                    26.99411478 
_cell_length_b                    30.565908808550414 
_cell_length_c                    29.77902531817225 
_cell_angle_alpha                 92.01372154633658 
_cell_angle_beta                  90.52504007418176 
_cell_angle_gamma                 89.72180800385689 
loop_ 
_atom_site_label 
_atom_site_type_symbol 
_atom_site_fract_x 
_atom_site_fract_y 
_atom_site_fract_z 
_atom_site_charge 
O1          O  0.43838612  0.46190259  0.05643531    -0.81000
O2          O  0.09071884  0.04302099  0.05508993    -0.81100
O3          O  0.03440832  0.44437553  0.07012313    -0.81100
O4          O  0.47283902  0.06823637  0.05560693    -0.81000
O5          O  0.10731001  0.45233898  0.04100398    -0.81100
O6          O  0.40146648  0.04263803  0.03960593    -0.81100
O7          O  0.04991987  0.09839355  0.02593629    -0.81000
O8          O  0.46284285  0.39588437  0.02936581    -0.81100
C9          C  0.43697096  0.41922014  0.05726227     1.08600
C10         C  0.07804142  0.08259417  0.05606197     1.08500
C11         C  0.08063084  0.43785360  0.07122520     1.08700
C12         C  0.42722500  0.06786784  0.06378175     1.08500
O13         O  0.42312732  0.04564508  0.45375438    -0.81100
O14         O  0.09442884  0.46749190  0.44852928    -0.81100
O15         O  0.47208289  0.43187946  0.44812066    -0.81100
O16         O  0.02372894  0.06847075  0.43397081    -0.81000
O17         O  0.09748101  0.05566828  0.46236414    -0.81100
O18         O  0.40204046  0.46295132  0.46065474    -0.81100
O19         O  0.45707763  0.10894947  0.47703143    -0.81000
O20         O  0.05578056  0.41144546  0.47858025    -0.81100
Co21       Co  0.44085418  0.50754066  0.00585513     1.51500
Co22       Co  0.08935230  0.00426038  0.50044831     1.51700
Co23       Co  0.49847572  0.44351905  0.00634142     1.51600
Co24       Co  0.49788919  0.06065961  0.49373242     1.51500
O25         O  0.51561204  0.49987987  0.99012685    -1.43000
C26         C  0.42759003  0.08758324  0.45053033     1.08600
C27         C  0.08375424  0.42731194  0.44854868     1.08700
C28         C  0.42670802  0.43518274  0.43859728     1.08600
C29         C  0.07015679  0.07332505  0.43347018     1.08600
O30         O  0.35171903  0.28932680  0.28486735    -0.81000
O31         O  0.15453857  0.19935938  0.28628043    -0.81100
O32         O  0.19832967  0.34430925  0.27249225    -0.81100
O33         O  0.30053281  0.14217844  0.26970578    -0.81000
O34         O  0.15674246  0.28862466  0.30120123    -0.81100
O35         O  0.32540852  0.20625847  0.29739363    -0.80700
O36         O  0.22747800  0.18559245  0.31592361    -0.81000
O37         O  0.28453942  0.32370980  0.30293702    -0.81100
C38         C  0.32960679  0.31701605  0.31015242     1.08600
C39         C  0.18093103  0.18111486  0.31540725     1.08500
C40         C  0.16824617  0.32884419  0.30129853     1.08700
C41         C  0.32617600  0.16412721  0.29862502     1.08500
O42         O  0.37026160  0.22005731  0.21720440    -0.81100
O43         O  0.15112793  0.30090683  0.21130090    -0.81100
O44         O  0.29142357  0.35919778  0.22009736    -0.81100
O45         O  0.21000244  0.15980903  0.22397948    -0.81000
O46         O  0.17320864  0.21625494  0.19439145    -0.81100
O47         O  0.31680465  0.29306683  0.19427014    -0.81100
O48         O  0.29671007  0.19513807  0.19710876    -0.81000
O49         O  0.22347886  0.30528390  0.18232070    -0.81100
Co50       Co  0.31287329  0.24735560  0.24478926     1.51500
Co51       Co  0.16421969  0.25087483  0.24885021     1.51700
Co52       Co  0.25577462  0.31160896  0.24322036     1.51600
Co53       Co  0.26225957  0.19387422  0.25802481     1.51500
O54         O  0.23809596  0.25552048  0.26006494    -1.43000
C55         C  0.34383889  0.19521782  0.19132605     1.08600
C56         C  0.17789928  0.31321386  0.18040082     1.08700
C57         C  0.31782502  0.33571752  0.19280862     1.08600
C58         C  0.18283703  0.17620262  0.19384805     1.08600
C59         C  0.10993894  0.08843585  0.13303299    -0.27200
C60         C  0.09974530  0.10911830  0.09237238    -0.15300
C61         C  0.11838458  0.15081493  0.08482157     0.35300
C62         C  0.14787213  0.17090350  0.11802968    -0.26700
C63         C  0.15869435  0.15007996  0.15843933    -0.15900
C64         C  0.13955206  0.10849909  0.16626741     0.36400
N65         N  0.14951824  0.08721484  0.20776178    -0.90200
H66         H  0.09540156  0.05605020  0.13845780     0.17500
H67         H  0.16258452  0.20316915  0.11237119     0.17500
N68         N  0.10872291  0.17191805  0.04319863    -0.89200
H69         H  0.13346387  0.05616643  0.20732515     0.34900
H70         H  0.13226538  0.10553805  0.23357807     0.40000
H71         H  0.12652201  0.14542935  0.51502851     0.39600
H72         H  0.12814731  0.19572065  0.53923002     0.34500
C73         C  0.13885910  0.08411715  0.38174058    -0.27200
C74         C  0.09490244  0.10080695  0.40073095    -0.15300
C75         C  0.08079765  0.14460411  0.39264838     0.35300
C76         C  0.11079525  0.16974269  0.36555108    -0.26700
C77         C  0.15502082  0.15317545  0.34697780    -0.15900
C78         C  0.16856145  0.10914068  0.35430099     0.36400
N79         N  0.21068078  0.08794661  0.33364758    -0.90200
H80         H  0.15012125  0.05073562  0.38796361     0.17500
H81         H  0.09953412  0.20310900  0.35925783     0.17500
N82         N  0.03776427  0.16550261  0.41202176    -0.89200
H83         H  0.19765121  0.06114988  0.31430337     0.34900
H84         H  0.22787755  0.10793132  0.31102768     0.40000
H85         H  0.01925377  0.14531062  0.43356002     0.39600
H86         H  0.04986116  0.19220153  0.43201161     0.34500
C87         C  0.17966276  0.38073299  0.13776009    -0.27200
C88         C  0.15559279  0.34178028  0.14722259    -0.15300
C89         C  0.10599086  0.33516585  0.13307534     0.35300
C90         C  0.08068402  0.36854975  0.11119128    -0.26700
C91         C  0.10436192  0.40792310  0.10247561    -0.15900
C92         C  0.15446988  0.41407266  0.11568972     0.36400
N93         N  0.17942115  0.45430473  0.10678900    -0.90200
H94         H  0.21732415  0.38604964  0.14960267     0.17500
H95         H  0.04304837  0.36315295  0.09933087     0.17500
N96         N  0.08159168  0.29450008  0.14120034    -0.89200
H97         H  0.21604692  0.45346816  0.11842934     0.34900
H98         H  0.16157446  0.47946963  0.12516372     0.40000
H99         H  0.10028460  0.26977463  0.12291939     0.39600
H100        H  0.04523291  0.29490558  0.12883980     0.34500
C101        C  0.35660402  0.11391285  0.09188860    -0.27200
C102        C  0.40515356  0.09831811  0.09814547    -0.15300
C103        C  0.43370048  0.11559971  0.13449550     0.35300
C104        C  0.41386508  0.14889433  0.16295159    -0.26700
C105        C  0.36557873  0.16482078  0.15660394    -0.15900
C106        C  0.33666273  0.14689088  0.12057193     0.36400
N107        N  0.28729282  0.16246537  0.11247646    -0.90200
H108        H  0.33441091  0.10136526  0.06382198     0.17500
H109        H  0.43570804  0.16138206  0.19124335     0.17500
N110        N  0.48257818  0.09874907  0.14282007    -0.89200
H111        H  0.26309845  0.13588453  0.11379050     0.34900
H112        H  0.28562194  0.17433786  0.08002775     0.40000
H113        H  0.47900498  0.06598129  0.15098093     0.39600
H114        H  0.49884569  0.11492983  0.17076429     0.34500
C115        C  0.35257054  0.39498110  0.41020308    -0.27200
C116        C  0.40264724  0.40549957  0.40467953    -0.15300
C117        C  0.42937828  0.38509573  0.36915567     0.35300
C118        C  0.40562901  0.35421035  0.34021156    -0.26700
C119        C  0.35541077  0.34401377  0.34545131    -0.15900
C120        C  0.32874322  0.36434541  0.38131243     0.36400
N121        N  0.27758036  0.35376252  0.38840672    -0.90200
H122        H  0.33211515  0.41002732  0.43787572     0.17500
H123        H  0.42587693  0.33944716  0.31228019     0.17500
N124        N  0.48010165  0.39670150  0.36180776    -0.89200
H125        H  0.26323230  0.37204780  0.41567366     0.34900
H126        H  0.27602251  0.32088310  0.39683912     0.40000
H127        H  0.48070425  0.42963082  0.35339480     0.39600
H128        H  0.49450994  0.37876746  0.33436110     0.34500
C129        C  0.37052240  0.17088314  0.37230985    -0.27200
C130        C  0.35283309  0.14348131  0.33656529    -0.15300
C131        C  0.36086754  0.09794165  0.33844990     0.35300
C132        C  0.38514613  0.08111861  0.37611829    -0.26700
C133        C  0.40201471  0.10844947  0.41221618    -0.15900
C134        C  0.39527013  0.15406112  0.40977408     0.36400
N135        N  0.41245517  0.18322293  0.44545977    -0.90200
H136        H  0.36498136  0.20595398  0.37126407     0.17500
H137        H  0.39117271  0.04608977  0.37696442     0.17500
N138        N  0.34558642  0.06885976  0.30196796    -0.89200
H139        H  0.40106783  0.21533042  0.43993297     0.34900
H140        H  0.45113042  0.18354683  0.44425508     0.40000
H141        H  0.30695515  0.06728758  0.30235273     0.39600
H142        H  0.35815891  0.03700217  0.30709879     0.34500
C143        C  0.14720464  0.41694997  0.39037468    -0.27200
C144        C  0.10562184  0.40018801  0.41232279    -0.15300
C145        C  0.08328858  0.36143727  0.39583082     0.35300
C146        C  0.10285704  0.34050143  0.35754028    -0.26700
C147        C  0.14499584  0.35682075  0.33611505    -0.15900
C148        C  0.16677203  0.39603698  0.35210413     0.36400
N149        N  0.20923203  0.41387879  0.33047962    -0.90200
H150        H  0.16447133  0.44696466  0.40287700     0.17500
H151        H  0.08553178  0.31054789  0.34495173     0.17500
N152        N  0.04045195  0.34396984  0.41715432    -0.89200
H153        H  0.22237589  0.44157095  0.34843399     0.34900
H154        H  0.19750487  0.42469125  0.29922679     0.40000
H155        H  0.05784119  0.32817507  0.95047442     0.39600
H156        H  0.02678005  0.31674281  0.39875342     0.34500
C157        C  0.39554777  0.35344571  0.08774927    -0.27200
C158        C  0.40752445  0.39802123  0.09280775    -0.15300
C159        C  0.38932771  0.42193177  0.13084546     0.35300
C160        C  0.35959137  0.40122592  0.16225399    -0.26700
C161        C  0.34741584  0.35668731  0.15717466    -0.15900
C162        C  0.36559407  0.33259657  0.11908075     0.36400
N163        N  0.35324270  0.28716161  0.11178804    -0.90200
H164        H  0.40874359  0.33483311  0.05858848     0.17500
H165        H  0.34667334  0.42016477  0.19132163     0.17500
N166        N  0.40157212  0.46717050  0.13842601    -0.89200
H167        H  0.37054218  0.27406747  0.08302890     0.34900
H168        H  0.31510549  0.28540807  0.10554180     0.40000
H169        H  0.41974182  0.47059959  0.16951291     0.39600
H170        H  0.36861133  0.48521756  0.14019850     0.34500
O171        O  0.42382803  0.45949467  0.54876076    -0.81000
O172        O  0.08132153  0.03922293  0.55492654    -0.81100
O173        O  0.03161610  0.44616719  0.56910550    -0.81100
O174        O  0.47261604  0.06619238  0.55688951    -0.81000
O175        O  0.10437505  0.45552012  0.54002839    -0.81100
O176        O  0.40218054  0.03985973  0.53894392    -0.81100
O177        O  0.04306010  0.09516111  0.52565711    -0.81000
O178        O  0.46270072  0.39630377  0.53180101    -0.81100
C179        C  0.43097286  0.41837049  0.55530489     1.08600
C180        C  0.07084518  0.07912895  0.55558476     1.08500
C181        C  0.07797098  0.44006331  0.57004623     1.08700
C182        C  0.42678542  0.06530160  0.56380562     1.08500
O183        O  0.42293176  0.04702212  0.95385372    -0.81100
O184        O  0.09856919  0.46376027  0.94980607    -0.81100
O185        O  0.46873449  0.43222026  0.94665121    -0.81100
O186        O  0.02565134  0.06778494  0.93550371    -0.81000
O187        O  0.10057855  0.05649412  0.96224727    -0.81100
O188        O  0.40147767  0.46538915  0.96652803    -0.81100
O189        O  0.45953768  0.10985678  0.97510099    -0.81000
O190        O  0.05934475  0.40800517  0.97998844    -0.81100
Co191      Co  0.44096276  0.50241086  0.50024813     1.51500
Co192      Co  0.09359372  0.00610503  0.00177554     1.51700
Co193      Co  0.49943117  0.44418646  0.51016804     1.51600
Co194      Co  0.49818776  0.06092897  0.99254141     1.51500
O195        O  0.51858060  0.50283725  0.49879781    -1.43000
C196        C  0.42904545  0.08860255  0.94949302     1.08600
C197        C  0.08779708  0.42360591  0.95006214     1.08700
C198        C  0.42337367  0.43839370  0.94038447     1.08600
C199        C  0.07201928  0.07330313  0.93380519     1.08600
O200        O  0.35097413  0.29144326  0.79115995    -0.81000
O201        O  0.15264439  0.19830783  0.78631864    -0.81100
O202        O  0.19650253  0.34285452  0.76965052    -0.81100
O203        O  0.29961637  0.14309379  0.77084030    -0.81000
O204        O  0.15810550  0.28682964  0.79985673    -0.81100
O205        O  0.33342669  0.20621909  0.79501288    -0.80700
O206        O  0.22687581  0.18708826  0.81466564    -0.81000
O207        O  0.28053217  0.32161223  0.80373251    -0.81100
C208        C  0.32599658  0.31899123  0.81318499     1.08600
C209        C  0.18036956  0.18184450  0.81558068     1.08500
C210        C  0.16842401  0.32708856  0.79963016     1.08700
C211        C  0.32947135  0.16423487  0.79722187     1.08500
O212        O  0.35471608  0.21504898  0.71127638    -0.81100
O213        O  0.14989670  0.29843876  0.70811839    -0.81100
O214        O  0.29094484  0.35905551  0.72115286    -0.81100
O215        O  0.20430125  0.15648016  0.72365214    -0.81000
O216        O  0.16460369  0.21209374  0.69370083    -0.81100
O217        O  0.33052465  0.29637697  0.70391376    -0.81100
O218        O  0.28496912  0.18769931  0.69210518    -0.81000
O219        O  0.22315247  0.30738894  0.67991917    -0.81100
Co220      Co  0.31268051  0.25219894  0.75071044     1.51500
Co221      Co  0.16087428  0.24878778  0.74724579     1.51700
Co222      Co  0.25411608  0.31023745  0.74102804     1.51600
Co223      Co  0.25835763  0.19132248  0.75474707     1.51500
O224        O  0.23501855  0.25090396  0.75095932    -1.43000
C225        C  0.33082324  0.18977999  0.68554606     1.08600
C226        C  0.17679095  0.31334997  0.67815992     1.08700
C227        C  0.32367027  0.33763641  0.69822860     1.08600
C228        C  0.17659943  0.17234369  0.69318911     1.08600
C229        C  0.10289424  0.08563908  0.63237531    -0.27200
C230        C  0.09466632  0.10551552  0.59101016    -0.15300
C231        C  0.11679702  0.14570482  0.58224651     0.35300
C232        C  0.14661621  0.16547790  0.61558617    -0.26700
C233        C  0.15439266  0.14571383  0.65713628    -0.15900
C234        C  0.13261102  0.10542326  0.66568418     0.36400
N235        N  0.13940556  0.08551579  0.70836795    -0.90200
H236        H  0.08609903  0.05429265  0.63858554     0.17500
H237        H  0.16332196  0.19689480  0.60950344     0.17500
N238        N  0.10980613  0.16571025  0.53960991    -0.89200
H239        H  0.12138847  0.05535109  0.70864404     0.34900
H240        H  0.12222336  0.10567079  0.73277782     0.40000
H241        H  0.12653182  0.15368995  0.01762990     0.39600
H242        H  0.12443525  0.20309378  0.04372401     0.34500
C243        C  0.13346869  0.08263179  0.87490844    -0.27200
C244        C  0.09522662  0.10135088  0.90082696    -0.15300
C245        C  0.08759820  0.14728203  0.90067588     0.35300
C246        C  0.11775494  0.17266323  0.87384115    -0.26700
C247        C  0.15621244  0.15391106  0.84812604    -0.15900
C248        C  0.16326718  0.10793926  0.84779259     0.36400
N249        N  0.19891538  0.08545790  0.81968820    -0.90200
H250        H  0.14021670  0.04764497  0.87565665     0.17500
H251        H  0.11099783  0.20764195  0.87299604     0.17500
N252        N  0.05084717  0.16959238  0.92775119    -0.89200
H253        H  0.17951425  0.06399476  0.79786941     0.34900
H254        H  0.21751369  0.10682130  0.79935878     0.40000
H255        H  0.03145142  0.14816086  0.94730936     0.39600
H256        H  0.06939126  0.19110932  0.95019929     0.34500
C257        C  0.17792690  0.38099033  0.63473113    -0.27200
C258        C  0.15299101  0.34304199  0.64629979    -0.15300
C259        C  0.10220819  0.33817940  0.63467519     0.35300
C260        C  0.07732818  0.37178608  0.61256045    -0.26700
C261        C  0.10220230  0.40983762  0.60116511    -0.15900
C262        C  0.15305487  0.41458460  0.61258165     0.36400
N263        N  0.17920404  0.45370780  0.60184450    -0.90200
H264        H  0.21635206  0.38531905  0.64474157     0.17500
H265        H  0.03887886  0.36748825  0.60262569     0.17500
N266        N  0.07608377  0.29902579  0.64538960    -0.89200
H267        H  0.21618829  0.45196302  0.61229958     0.34900
H268        H  0.16308333  0.47982892  0.62019528     0.40000
H269        H  0.09232930  0.27289657  0.62714650     0.39600
H270        H  0.03913466  0.30069645  0.63481116     0.34500
C271        C  0.35275336  0.10779339  0.58894420    -0.27200
C272        C  0.40247131  0.09588792  0.59644949    -0.15300
C273        C  0.42905005  0.11678375  0.63191446     0.35300
C274        C  0.40565965  0.14887245  0.65924092    -0.26700
C275        C  0.35580307  0.16053970  0.65199797    -0.15900
C276        C  0.32931427  0.14017316  0.61600131     0.36400
N277        N  0.27888491  0.15264314  0.60683137    -0.90200
H278        H  0.33241712  0.09266522  0.56101246     0.17500
H279        H  0.42627536  0.16372950  0.68715888     0.17500
N280        N  0.47949586  0.10492348  0.64087936    -0.89200
H281        H  0.26457249  0.13440955  0.57938352     0.34900
H282        H  0.27903306  0.18534362  0.59757814     0.40000
H283        H  0.48187918  0.09408771  0.67370906     0.39600
H284        H  0.50123133  0.13303288  0.63893475     0.34500
C285        C  0.34760556  0.39948807  0.91206407    -0.27200
C286        C  0.39703112  0.41156880  0.90524945    -0.15300
C287        C  0.42276511  0.39313552  0.86787644     0.35300
C288        C  0.39904281  0.36216269  0.83923671    -0.26700
C289        C  0.34993945  0.34941669  0.84656069    -0.15900
C290        C  0.32397118  0.36825783  0.88337317     0.36400
N291        N  0.27429366  0.35460178  0.89233884    -0.90200
H292        H  0.32807770  0.41291838  0.94106977     0.17500
H293        H  0.41878591  0.34848014  0.81045038     0.17500
N294        N  0.47290927  0.40590625  0.85910477    -0.89200
H295        H  0.26034610  0.37152453  0.92061302     0.34900
H296        H  0.27571454  0.32150750  0.90013137     0.40000
H297        H  0.47235157  0.43906977  0.85157602     0.39600
H298        H  0.48670682  0.38891425  0.83077695     0.34500
C299        C  0.37957959  0.17097221  0.86730569    -0.27200
C300        C  0.35647523  0.14328244  0.83448709    -0.15300
C301        C  0.35808299  0.09767978  0.83970036     0.35300
C302        C  0.38172773  0.08118158  0.87773860    -0.26700
C303        C  0.40399012  0.10899135  0.91091342    -0.15900
C304        C  0.40360431  0.15447332  0.90505005     0.36400
N305        N  0.42701855  0.18396413  0.93731663    -0.90200
H306        H  0.37888069  0.20612265  0.86387553     0.17500
H307        H  0.38277572  0.04603357  0.88121734     0.17500
N308        N  0.33653489  0.06812244  0.80644649    -0.89200
H309        H  0.41977283  0.21646105  0.92972938     0.34900
H310        H  0.46536839  0.17975798  0.93405815     0.40000
H311        H  0.29811583  0.07096571  0.80906069     0.39600
H312        H  0.34496638  0.03565847  0.81356901     0.34500
C313        C  0.15086361  0.41328360  0.89136109    -0.27200
C314        C  0.10972060  0.39633760  0.91390007    -0.15300
C315        C  0.08720672  0.35765411  0.89751940     0.35300
C316        C  0.10552171  0.33739977  0.85834223    -0.26700
C317        C  0.14660549  0.35434236  0.83581025    -0.15900
C318        C  0.16906704  0.39311461  0.85208299     0.36400
N319        N  0.21081854  0.41125725  0.82964659    -0.90200
H320        H  0.16853691  0.44307100  0.90396732     0.17500
H321        H  0.08791312  0.30757576  0.84575011     0.17500
N322        N  0.04529485  0.33967095  0.91980810    -0.89200
H323        H  0.22464596  0.43853893  0.84776166     0.34900
H324        H  0.19807342  0.42269944  0.79893000     0.40000
H325        H  0.05189853  0.33251312  0.44821040     0.39600
H326        H  0.03139701  0.31238733  0.90157368     0.34500
C327        C  0.40771202  0.35331544  0.59792801    -0.27200
C328        C  0.40394760  0.39842555  0.59254495    -0.15300
C329        C  0.37499593  0.42389630  0.62347287     0.35300
C330        C  0.34917152  0.40349234  0.65748720    -0.26700
C331        C  0.35232673  0.35823822  0.66239298    -0.15900
C332        C  0.38231509  0.33296611  0.63211966     0.36400
N333        N  0.38683578  0.28641134  0.63518312    -0.90200
H334        H  0.43016794  0.33334414  0.57515792     0.17500
H335        H  0.32679896  0.42341838  0.68036590     0.17500
N336        N  0.37205522  0.47060867  0.62122730    -0.89200
H337        H  0.42428972  0.27868083  0.63972797     0.34900
H338        H  0.37495590  0.27179479  0.60470501     0.40000
H339        H  0.38472064  0.48437535  0.65186212     0.39600
H340        H  0.33485468  0.47941778  0.61720704     0.34500
O341        O  0.42447119  0.95958417  0.04905345    -0.81000
O342        O  0.09211125  0.53859760  0.05538809    -0.81100
O343        O  0.03268456  0.94822945  0.07054952    -0.81100
O344        O  0.45707968  0.56008689  0.05299079    -0.81000
O345        O  0.10555448  0.95678712  0.04130710    -0.81100
O346        O  0.38351174  0.53441916  0.03383933    -0.81100
O347        O  0.05346711  0.59399096  0.02398706    -0.81000
O348        O  0.46069465  0.89569448  0.02994395    -0.81100
C349        C  0.42989361  0.91803720  0.05420718     1.08600
C350        C  0.08036371  0.57835276  0.05502848     1.08500
C351        C  0.07902258  0.94210733  0.07167792     1.08700
C352        C  0.41007119  0.55950032  0.05930825     1.08500
O353        O  0.42077457  0.54778453  0.45482361    -0.81100
O354        O  0.09615308  0.96620054  0.44815083    -0.81100
O355        O  0.47319492  0.93129261  0.44768761    -0.81100
O356        O  0.02592725  0.56571594  0.43355199    -0.81000
O357        O  0.10032318  0.55590109  0.46196310    -0.81100
O358        O  0.40332669  0.96163497  0.46282344    -0.81100
O359        O  0.45613876  0.61090996  0.47729724    -0.81000
O360        O  0.05537504  0.91033566  0.47748463    -0.81100
Co361      Co  0.44186681  0.00286546  0.00104077     1.51500
Co362      Co  0.09264093  0.50537499  0.50119369     1.51700
Co363      Co  0.49904297  0.94297788  0.00900647     1.51600
Co364      Co  0.49618383  0.56239928  0.49402625     1.51500
O365        O  0.51962684  0.00153602  0.99898038    -1.43000
C366        C  0.42584997  0.58959623  0.45151081     1.08600
C367        C  0.08489808  0.92592596  0.44835175     1.08700
C368        C  0.42743565  0.93448377  0.43968488     1.08600
C369        C  0.07228542  0.57178027  0.43256283     1.08600
O370        O  0.35282586  0.79037588  0.28954049    -0.81000
O371        O  0.15289950  0.69965529  0.28710961    -0.81100
O372        O  0.19853412  0.84407314  0.27174468    -0.81100
O373        O  0.29922377  0.64418990  0.27175403    -0.81000
O374        O  0.15873768  0.78817885  0.30094727    -0.81100
O375        O  0.33287199  0.70729699  0.29608282    -0.80700
O376        O  0.22699855  0.68849592  0.31577465    -0.81000
O377        O  0.28285342  0.82036481  0.30506760    -0.81100
C378        C  0.32855525  0.81709704  0.31318795     1.08600
C379        C  0.18055699  0.68268040  0.31617479     1.08500
C380        C  0.16975653  0.82829830  0.30118023     1.08700
C381        C  0.32836805  0.66542615  0.29869613     1.08500
O382        O  0.35468467  0.71294073  0.21078674    -0.81100
O383        O  0.15087022  0.80038891  0.20916426    -0.81100
O384        O  0.29342140  0.85975757  0.22325449    -0.81100
O385        O  0.20426837  0.65822563  0.22530460    -0.81000
O386        O  0.16506520  0.71381908  0.19466882    -0.81100
O387        O  0.33109729  0.79670629  0.20392436    -0.81100
O388        O  0.28345055  0.68874985  0.19277771    -0.81000
O389        O  0.22442982  0.80996132  0.18160355    -0.81100
Co390      Co  0.31332725  0.75173998  0.24982917     1.51500
Co391      Co  0.16137585  0.75038451  0.24814574     1.51700
Co392      Co  0.25560132  0.81115839  0.24254596     1.51600
Co393      Co  0.25839202  0.69268292  0.25585150     1.51500
O394        O  0.23550880  0.75205162  0.25153916    -1.43000
C395        C  0.32913406  0.68860667  0.18547711     1.08600
C396        C  0.17810389  0.81592853  0.17975382     1.08700
C397        C  0.32539824  0.83826398  0.19947300     1.08600
C398        C  0.17709130  0.67409010  0.19457011     1.08600
C399        C  0.10655950  0.58651068  0.13309713    -0.27200
C400        C  0.10140204  0.60533317  0.09085836    -0.15300
C401        C  0.12384863  0.64524031  0.08202024     0.35300
C402        C  0.15078036  0.66622790  0.11638771    -0.26700
C403        C  0.15608922  0.64729518  0.15857194    -0.15900
C404        C  0.13405806  0.60718651  0.16724604     0.36400
N405        N  0.13856720  0.58835914  0.21071476    -0.90200
H406        H  0.08942604  0.55527347  0.13918037     0.17500
H407        H  0.16781621  0.69752311  0.11037786     0.17500
N408        N  0.12049008  0.66342208  0.03816839    -0.89200
H409        H  0.12054846  0.55821821  0.21099746     0.34900
H410        H  0.12016212  0.60908105  0.23387245     0.40000
H411        H  0.13961887  0.64119045  0.51510138     0.39600
H412        H  0.14333925  0.69269082  0.53596358     0.34500
C413        C  0.13501879  0.58209519  0.37465104    -0.27200
C414        C  0.09578989  0.60009144  0.39992371    -0.15300
C415        C  0.08727634  0.64588557  0.39972231     0.35300
C416        C  0.11702764  0.67177908  0.37310420    -0.26700
C417        C  0.15638435  0.65386694  0.34799726    -0.15900
C418        C  0.16476918  0.60801635  0.34798216     0.36400
N419        N  0.20183384  0.58628419  0.32080653    -0.90200
H420        H  0.14264697  0.54725995  0.37563399     0.17500
H421        H  0.10943638  0.70662523  0.37221606     0.17500
N422        N  0.05019670  0.66766967  0.42683453    -0.89200
H423        H  0.18365502  0.56429691  0.29862088     0.34900
H424        H  0.22031092  0.60802855  0.30086221     0.40000
H425        H  0.03139916  0.64600343  0.44654617     0.39600
H426        H  0.06843509  0.68946117  0.44922490     0.34500
C427        C  0.17812213  0.88546756  0.13933044    -0.27200
C428        C  0.15462093  0.84596987  0.14811268    -0.15300
C429        C  0.10494069  0.83939545  0.13386403     0.35300
C430        C  0.07950256  0.87282865  0.11202267    -0.26700
C431        C  0.10292536  0.91232276  0.10327537    -0.15900
C432        C  0.15275918  0.91880831  0.11715545     0.36400
N433        N  0.17733431  0.95932511  0.10872467    -0.90200
H434        H  0.21566814  0.89100717  0.15135780     0.17500
H435        H  0.04196694  0.86726279  0.09998639     0.17500
N436        N  0.08061643  0.79857866  0.14147352    -0.89200
H437        H  0.21375413  0.95880474  0.12085781     0.34900
H438        H  0.15888945  0.98425138  0.12698025     0.40000
H439        H  0.09944279  0.77404767  0.12301490     0.39600
H440        H  0.04428958  0.79900876  0.12904504     0.34500
C441        C  0.34174661  0.60801015  0.08634748    -0.27200
C442        C  0.38866599  0.58982891  0.09405914    -0.15300
C443        C  0.41732652  0.60592851  0.13119417     0.35300
C444        C  0.39835640  0.63998221  0.15929057    -0.26700
C445        C  0.35113925  0.65787684  0.15150512    -0.15900
C446        C  0.32301178  0.64183664  0.11447157     0.36400
N447        N  0.27548758  0.66036253  0.10478513    -0.90200
H448        H  0.32003271  0.59697535  0.05736327     0.17500
H449        H  0.41980763  0.65153306  0.18823989     0.17500
N450        N  0.46533510  0.58747186  0.14044785    -0.89200
H451        H  0.24953190  0.63507450  0.10456311     0.34900
H452        H  0.27646004  0.67273243  0.07254959     0.40000
H453        H  0.46018196  0.55479241  0.14851409     0.39600
H454        H  0.48164611  0.60310405  0.16862723     0.34500
C455        C  0.35415718  0.89111970  0.41541038    -0.27200
C456        C  0.40223511  0.90565998  0.40616904    -0.15300
C457        C  0.42606470  0.89061251  0.36672014     0.35300
C458        C  0.40161361  0.86060215  0.33759434    -0.26700
C459        C  0.35362336  0.84588069  0.34689570    -0.15900
C460        C  0.32966684  0.86113452  0.38625059     0.36400
N461        N  0.28113825  0.84551829  0.39683197    -0.90200
H462        H  0.33616412  0.90229883  0.44614255     0.17500
H463        H  0.41957616  0.84955676  0.30680259     0.17500
N464        N  0.47443078  0.90652125  0.35599604    -0.89200
H465        H  0.26866952  0.86008944  0.42696810     0.34900
H466        H  0.28410830  0.81193984  0.40200551     0.40000
H467        H  0.47120668  0.94010504  0.35099029     0.39600
H468        H  0.48680440  0.89215694  0.32571657     0.34500
C469        C  0.36913943  0.67226888  0.37346348    -0.27200
C470        C  0.35327082  0.64473622  0.33708838    -0.15300
C471        C  0.36036246  0.59925025  0.33933980     0.35300
C472        C  0.38398332  0.58261591  0.37727449    -0.26700
C473        C  0.40008877  0.61016808  0.41352013    -0.15900
C474        C  0.39248433  0.65561020  0.41151651     0.36400
N475        N  0.40710401  0.68468410  0.44824868    -0.90200
H476        H  0.36304676  0.70728364  0.37256179     0.17500
H477        H  0.39011644  0.54760698  0.37820103     0.17500
N478        N  0.34466902  0.57011520  0.30305258    -0.89200
H479        H  0.39464438  0.71642168  0.44298678     0.34900
H480        H  0.44589240  0.68632164  0.44840011     0.40000
H481        H  0.30600981  0.56928102  0.30330375     0.39600
H482        H  0.35641416  0.53807445  0.30863532     0.34500
C483        C  0.15198410  0.91283300  0.39439017    -0.27200
C484        C  0.10786248  0.89796943  0.41352822    -0.15300
C485        C  0.08388942  0.86080356  0.39499211     0.35300
C486        C  0.10372825  0.84028133  0.35659862    -0.26700
C487        C  0.14752479  0.85552175  0.33706174    -0.15900
C488        C  0.17180539  0.89232554  0.35599425     0.36400
N489        N  0.21689608  0.90808574  0.33708614    -0.90200
H490        H  0.17069496  0.94131764  0.40894991     0.17500
H491        H  0.08506097  0.81173830  0.34211839     0.17500
N492        N  0.03897907  0.84484036  0.41411741    -0.89200
H493        H  0.23158077  0.93382776  0.35707786     0.34900
H494        H  0.20788578  0.92129491  0.30618951     0.40000
H495        H  0.04807307  0.83368787  0.94683317     0.39600
H496        H  0.02458064  0.81876816  0.39445378     0.34500
C497        C  0.41560566  0.85584966  0.10386190    -0.27200
C498        C  0.40269080  0.89804484  0.09130880    -0.15300
C499        C  0.36566768  0.92134132  0.11599441     0.35300
C500        C  0.34183487  0.90161015  0.15157402    -0.26700
C501        C  0.35393860  0.85898009  0.16354384    -0.15900
C502        C  0.39163898  0.83580753  0.13921824     0.36400
N503        N  0.40555923  0.79183929  0.14985797    -0.90200
H504        H  0.44441859  0.83805530  0.08576958     0.17500
H505        H  0.31308646  0.91972758  0.16944174     0.17500
N506        N  0.35164817  0.96503802  0.10514417    -0.89200
H507        H  0.43807489  0.78232787  0.13330920     0.34900
H508        H  0.37789034  0.77109641  0.13674978     0.40000
H509        H  0.35755608  0.98546448  0.13358441     0.39600
H510        H  0.31376161  0.96530604  0.09753088     0.34500
O511        O  0.42713050  0.95817010  0.54942104    -0.81000
O512        O  0.08942883  0.54215289  0.55464932    -0.81100
O513        O  0.03136982  0.94903688  0.56762598    -0.81100
O514        O  0.46998104  0.56788935  0.55685815    -0.81000
O515        O  0.10349727  0.95445949  0.53827299    -0.81100
O516        O  0.39962121  0.54109907  0.53873743    -0.81100
O517        O  0.04941873  0.59731377  0.52390224    -0.81000
O518        O  0.46458598  0.89444885  0.53115634    -0.81100
C519        C  0.43380600  0.91684606  0.55541838     1.08600
C520        C  0.07678557  0.58175140  0.55470202     1.08500
C521        C  0.07708691  0.94159861  0.56922692     1.08700
C522        C  0.42410898  0.56669781  0.56362621     1.08500
O523        O  0.42717624  0.54828172  0.95310968    -0.81100
O524        O  0.09564862  0.96744940  0.94942553    -0.81100
O525        O  0.47078792  0.93304299  0.94715260    -0.81100
O526        O  0.03094985  0.56207894  0.93359860    -0.81000
O527        O  0.10440870  0.55208472  0.96321402    -0.81100
O528        O  0.40126183  0.96379138  0.96271365    -0.81100
O529        O  0.45219771  0.61262377  0.98004585    -0.81000
O530        O  0.05724046  0.91184092  0.98064856    -0.81100
Co531      Co  0.44344194  0.00121816  0.50063033     1.51500
Co532      Co  0.09601575  0.50183968  0.00216314     1.51700
Co533      Co  0.50183623  0.94232988  0.50952409     1.51600
Co534      Co  0.49077690  0.56116043  0.99177074     1.51500
O535        O  0.52117760  0.00129198  0.49873192    -1.43000
C536        C  0.42634898  0.59037426  0.95151224     1.08600
C537        C  0.08540684  0.92717015  0.95043688     1.08700
C538        C  0.42509620  0.93658625  0.93928204     1.08600
C539        C  0.07741787  0.56787513  0.93303362     1.08600
O540        O  0.35083388  0.79285316  0.78912766    -0.81000
O541        O  0.15166187  0.70152286  0.78621733    -0.81100
O542        O  0.19633121  0.84604829  0.77136129    -0.81100
O543        O  0.29703532  0.64578202  0.77264681    -0.81000
O544        O  0.15687279  0.79002469  0.80066454    -0.81100
O545        O  0.33158062  0.70896973  0.79578422    -0.80700
O546        O  0.22521250  0.69158447  0.81556974    -0.81000
O547        O  0.28080243  0.82285994  0.80412012    -0.81100
C548        C  0.32641464  0.81950014  0.81259092     1.08600
C549        C  0.17886560  0.68533516  0.81604984     1.08500
C550        C  0.16782746  0.83018755  0.80101363     1.08700
C551        C  0.32692393  0.66706920  0.79890600     1.08500
O552        O  0.35361169  0.71661572  0.71117231    -0.81100
O553        O  0.14848692  0.80221123  0.70908739    -0.81100
O554        O  0.29102554  0.86171558  0.72165616    -0.81100
O555        O  0.20265507  0.66001160  0.72492191    -0.81000
O556        O  0.16353750  0.71567338  0.69410904    -0.81100
O557        O  0.32850026  0.79828016  0.70241726    -0.81100
O558        O  0.28359751  0.68941076  0.69281392    -0.81000
O559        O  0.22168856  0.81175484  0.68091646    -0.81100
Co560      Co  0.31154549  0.75415138  0.74978902     1.51500
Co561      Co  0.15970268  0.75223799  0.74768546     1.51700
Co562      Co  0.25336476  0.81324665  0.74165269     1.51600
Co563      Co  0.25697517  0.69447348  0.75564349     1.51500
O564        O  0.23390025  0.75392068  0.75063542    -1.43000
C565        C  0.32942322  0.69124569  0.68592673     1.08600
C566        C  0.17536259  0.81769920  0.67946516     1.08700
C567        C  0.32199405  0.83972102  0.69720448     1.08600
C568        C  0.17545266  0.67589448  0.69414608     1.08600
C569        C  0.09979148  0.59105782  0.63354869    -0.27200
C570        C  0.09756567  0.60878537  0.59062967    -0.15300
C571        C  0.12349834  0.64684871  0.58121746     0.35300
C572        C  0.15154672  0.66687090  0.61549225    -0.26700
C573        C  0.15390861  0.64908618  0.65838597    -0.15900
C574        C  0.12751854  0.61128068  0.66793366     0.36400
N575        N  0.12780231  0.59453607  0.71249848    -0.90200
H576        H  0.08005996  0.56112605  0.63998283     0.17500
H577        H  0.17138448  0.69673281  0.60899806     0.17500
N578        N  0.12242128  0.66407404  0.53686391    -0.89200
H579        H  0.10646810  0.56617249  0.71349378     0.34900
H580        H  0.11056886  0.61782809  0.73379671     0.40000
H581        H  0.13913823  0.64220636  0.01569866     0.39600
H582        H  0.13898778  0.69337427  0.03774550     0.34500
C583        C  0.15448782  0.59599024  0.89912099    -0.27200
C584        C  0.10216291  0.59631987  0.90065655    -0.15300
C585        C  0.07602170  0.62674839  0.87519759     0.35300
C586        C  0.10218645  0.65606041  0.84926740    -0.26700
C587        C  0.15451065  0.65614562  0.84802664    -0.15900
C588        C  0.18091237  0.62556339  0.87342551     0.36400
N589        N  0.23413367  0.62380170  0.87245661    -0.90200
H590        H  0.17524255  0.57278111  0.91862389     0.17500
H591        H  0.08095677  0.67902608  0.82984620     0.17500
N592        N  0.02302705  0.62882017  0.87614433    -0.89200
H593        H  0.24734074  0.65244702  0.88841045     0.34900
H594        H  0.24756069  0.59789604  0.89125474     0.40000
H595        H  0.01268300  0.66036115  0.88701786     0.39600
H596        H  0.00967522  0.62364987  0.84327025     0.34500
C597        C  0.17466304  0.88734102  0.63954883    -0.27200
C598        C  0.15151925  0.84763247  0.64809459    -0.15300
C599        C  0.10187632  0.84069815  0.63387298     0.35300
C600        C  0.07643857  0.87371445  0.61146685    -0.26700
C601        C  0.09991715  0.91302935  0.60225725    -0.15900
C602        C  0.14923269  0.92026949  0.61693522     0.36400
N603        N  0.17321594  0.96108998  0.60864353    -0.90200
H604        H  0.21200690  0.89327193  0.65191777     0.17500
H605        H  0.03906657  0.86785042  0.59912399     0.17500
N606        N  0.07771150  0.79989647  0.64189855    -0.89200
H607        H  0.20935448  0.96120830  0.62149218     0.34900
H608        H  0.15389227  0.98584361  0.62635446     0.40000
H609        H  0.09664415  0.77525544  0.62371926     0.39600
H610        H  0.04138121  0.80009268  0.62942893     0.34500
C611        C  0.35105068  0.61121334  0.58774972    -0.27200
C612        C  0.39979191  0.59711237  0.59641836    -0.15300
C613        C  0.42585394  0.61576215  0.63346762     0.35300
C614        C  0.40301873  0.64799517  0.66102136    -0.26700
C615        C  0.35412261  0.66177703  0.65257177    -0.15900
C616        C  0.32823260  0.64345166  0.61531138     0.36400
N617        N  0.27908675  0.65804876  0.60489283    -0.90200
H618        H  0.33091521  0.59800585  0.55872259     0.17500
H619        H  0.42315328  0.66121395  0.69004694     0.17500
N620        N  0.47507436  0.60131632  0.64385943    -0.89200
H621        H  0.25559597  0.63092243  0.60475296     0.34900
H622        H  0.27912424  0.67020381  0.57254497     0.40000
H623        H  0.47516759  0.58937740  0.67629999     0.39600
H624        H  0.49854378  0.62845332  0.64374675     0.34500
C625        C  0.35116127  0.89445263  0.91418535    -0.27200
C626        C  0.39986257  0.90785105  0.90570537    -0.15300
C627        C  0.42459921  0.89111210  0.86735156     0.35300
C628        C  0.40012315  0.86117111  0.83826861    -0.26700
C629        C  0.35134992  0.84795904  0.84657331    -0.15900
C630        C  0.32678313  0.86426106  0.88517956     0.36400
N631        N  0.27779891  0.84941138  0.89524482    -0.90200
H632        H  0.33260643  0.90658892  0.94427800     0.17500
H633        H  0.41877321  0.84900770  0.80823328     0.17500
N634        N  0.47402094  0.90514802  0.85768315    -0.89200
H635        H  0.26494492  0.86464308  0.92490519     0.34900
H636        H  0.28011850  0.81591133  0.90106853     0.40000
H637        H  0.47242453  0.93859016  0.85152759     0.39600
H638        H  0.48704641  0.88946617  0.82829838     0.34500
C639        C  0.37300182  0.67356339  0.87159045    -0.27200
C640        C  0.35289991  0.64621629  0.83693041    -0.15300
C641        C  0.35572246  0.60058718  0.84118864     0.35300
C642        C  0.37896777  0.58335807  0.87914561    -0.26700
C643        C  0.39967453  0.61075957  0.91351027    -0.15900
C644        C  0.39592525  0.65640940  0.90960900     0.36400
N645        N  0.41480434  0.68567713  0.94420729    -0.90200
H646        H  0.37039324  0.70884554  0.86978680     0.17500
H647        H  0.38117024  0.54808970  0.88129184     0.17500
N648        N  0.33547222  0.57151242  0.80708681    -0.89200
H649        H  0.38549790  0.70526508  0.95603575     0.34900
H650        H  0.44083673  0.70606975  0.92988236     0.40000
H651        H  0.30899209  0.55192467  0.82196144     0.39600
H652        H  0.36396289  0.55113338  0.79506749     0.34500
C653        C  0.15159997  0.91416549  0.89531308    -0.27200
C654        C  0.10779132  0.89925522  0.91505041    -0.15300
C655        C  0.08335327  0.86241915  0.89636100     0.35300
C656        C  0.10247369  0.84213991  0.85742274    -0.26700
C657        C  0.14604079  0.85733289  0.83739309    -0.15900
C658        C  0.17066754  0.89396847  0.85634644     0.36400
N659        N  0.21538441  0.90987266  0.83686718    -0.90200
H660        H  0.17061895  0.94248881  0.90987366     0.17500
H661        H  0.08343090  0.81382069  0.84289132     0.17500
N662        N  0.03861786  0.84660786  0.91590007    -0.89200
H663        H  0.23044059  0.93545038  0.85682970     0.34900
H664        H  0.20581140  0.92329979  0.80620014     0.40000
H665        H  0.04815505  0.83206894  0.44521145     0.39600
H666        H  0.02379256  0.82071000  0.89622976     0.34500
C667        C  0.39366820  0.85304154  0.58921026    -0.27200
C668        C  0.40666605  0.89719384  0.59265340    -0.15300
C669        C  0.39140448  0.92289738  0.63086123     0.35300
C670        C  0.36232195  0.90395536  0.66386987    -0.26700
C671        C  0.34939820  0.85976177  0.66036067    -0.15900
C672        C  0.36483336  0.83423625  0.62223070     0.36400
N673        N  0.35014210  0.78939784  0.61606978    -0.90200
H674        H  0.40468997  0.83322554  0.56005797     0.17500
H675        H  0.35097637  0.92344831  0.69312485     0.17500
N676        N  0.40630522  0.96789360  0.63660535    -0.89200
H677        H  0.38214539  0.77008262  0.61349639     0.34900
H678        H  0.33056438  0.78607034  0.58568500     0.40000
H679        H  0.44477868  0.96825283  0.64083399     0.39600
H680        H  0.39138257  0.98213628  0.66598729     0.34500
O681        O  0.92680191  0.45692819  0.04769585    -0.81000
O682        O  0.59255930  0.03921977  0.05312358    -0.81100
O683        O  0.53197799  0.44863770  0.06694703    -0.81100
O684        O  0.97044094  0.06676576  0.05903293    -0.81000
O685        O  0.60391634  0.45484390  0.03756321    -0.81100
O686        O  0.90005685  0.04118314  0.03971752    -0.81100
O687        O  0.55372972  0.09480983  0.02182257    -0.81000
O688        O  0.96485796  0.39331751  0.03126721    -0.81100
C689        C  0.93289008  0.41572153  0.05425394     1.08600
C690        C  0.58087896  0.07907448  0.05270134     1.08500
C691        C  0.57775867  0.44120140  0.06828988     1.08700
C692        C  0.92455512  0.06581220  0.06548693     1.08500
O693        O  0.92695898  0.04733473  0.45374476    -0.81100
O694        O  0.59503578  0.46611246  0.44989350    -0.81100
O695        O  0.97076609  0.43385628  0.44661979    -0.81100
O696        O  0.52838094  0.06331903  0.43330967    -0.81000
O697        O  0.60313454  0.05300471  0.46075411    -0.81100
O698        O  0.90079315  0.46389045  0.46162219    -0.81100
O699        O  0.95137792  0.11171161  0.48112463    -0.81000
O700        O  0.55660243  0.41066524  0.48107609    -0.81100
Co701      Co  0.94429283  0.50017507  0.99974026     1.51500
Co702      Co  0.59551234  0.00293056  0.50063182     1.51700
Co703      Co  0.00229360  0.44107726  0.00962966     1.51600
Co704      Co  0.99045424  0.06039385  0.49257008     1.51500
O705        O  0.02187302  0.49991553  0.99858799    -1.43000
C706        C  0.92575554  0.08941470  0.45242927     1.08600
C707        C  0.58496276  0.42587221  0.45087325     1.08700
C708        C  0.92501545  0.43682783  0.43850229     1.08600
C709        C  0.57469495  0.06941819  0.43198614     1.08600
O710        O  0.85065294  0.29151745  0.28988874    -0.81000
O711        O  0.65107539  0.19955090  0.28609279    -0.81100
O712        O  0.69612209  0.34442804  0.27166860    -0.81100
O713        O  0.79789516  0.14461918  0.27189595    -0.81000
O714        O  0.65689914  0.28816356  0.30078088    -0.81100
O715        O  0.83050076  0.20772878  0.29721777    -0.80700
O716        O  0.72518315  0.18902909  0.31486739    -0.81000
O717        O  0.78063497  0.32182234  0.30406098    -0.81100
C718        C  0.82622331  0.31859545  0.31276183     1.08600
C719        C  0.67887446  0.18273433  0.31510442     1.08500
C720        C  0.66784172  0.32834078  0.30142498     1.08700
C721        C  0.82651055  0.16571977  0.29945991     1.08500
O722        O  0.85392326  0.21499253  0.21297017    -0.81100
O723        O  0.64832094  0.30100590  0.20935094    -0.81100
O724        O  0.79137335  0.35991862  0.22162991    -0.81100
O725        O  0.70330769  0.15891675  0.22396253    -0.81000
O726        O  0.66318849  0.21443533  0.19385327    -0.81100
O727        O  0.82845172  0.29629184  0.20326670    -0.81100
O728        O  0.78391060  0.18940830  0.19264857    -0.81000
O729        O  0.72137175  0.31027400  0.18086240    -0.81100
Co730      Co  0.81126175  0.25266754  0.25089148     1.51500
Co731      Co  0.65940697  0.25066652  0.24771003     1.51700
Co732      Co  0.75314748  0.31179449  0.24163221     1.51600
Co733      Co  0.75716237  0.19321316  0.25528724     1.51500
O734        O  0.73361753  0.25254534  0.25100307    -1.43000
C735        C  0.82988851  0.19049625  0.18674298     1.08600
C736        C  0.67503353  0.31638095  0.17950594     1.08700
C737        C  0.82333381  0.33785856  0.19828372     1.08600
C738        C  0.67598961  0.17485200  0.19332657     1.08600
C739        C  0.60488747  0.08797087  0.13128424    -0.27200
C740        C  0.60175187  0.10611799  0.08861314    -0.15300
C741        C  0.62547776  0.14546409  0.07977881     0.35300
C742        C  0.65214594  0.16635343  0.11447254    -0.26700
C743        C  0.65541418  0.14805878  0.15709901    -0.15900
C744        C  0.63143467  0.10886377  0.16594983     0.36400
N745        N  0.63286769  0.09133765  0.21016333    -0.90200
H746        H  0.58663108  0.05724135  0.13739796     0.17500
H747        H  0.67027598  0.19716629  0.10848526     0.17500
N748        N  0.62347488  0.16323989  0.03568902    -0.89200
H749        H  0.61339510  0.06189730  0.21064031     0.34900
H750        H  0.61427881  0.11336417  0.23186851     0.40000
H751        H  0.64032381  0.14214218  0.51428042     0.39600
H752        H  0.64245609  0.19323276  0.53646707     0.34500
C753        C  0.63629676  0.08116851  0.37344628    -0.27200
C754        C  0.59753439  0.09848739  0.39969865    -0.15300
C755        C  0.58823416  0.14420883  0.40007076     0.35300
C756        C  0.61646707  0.17064419  0.37273063    -0.26700
C757        C  0.65533950  0.15336300  0.34665349    -0.15900
C758        C  0.66457378  0.10764114  0.34614420     0.36400
N759        N  0.70092227  0.08659581  0.31767085    -0.90200
H760        H  0.64452457  0.04641215  0.37394327     0.17500
H761        H  0.60831192  0.20541710  0.37229342     0.17500
N762        N  0.55205199  0.16541311  0.42859954    -0.89200
H763        H  0.68228465  0.06415894  0.29614760     0.34900
H764        H  0.71767394  0.10857266  0.29698620     0.40000
H765        H  0.53518731  0.14346118  0.44936724     0.39600
H766        H  0.57079382  0.18771575  0.45004563     0.34500
C767        C  0.67620901  0.38407769  0.13596503    -0.27200
C768        C  0.65109943  0.34629840  0.14789313    -0.15300
C769        C  0.60032525  0.34144754  0.13617985     0.35300
C770        C  0.57579644  0.37464343  0.11316952    -0.26700
C771        C  0.60108212  0.41214886  0.10088632    -0.15900
C772        C  0.65165343  0.41723078  0.11289084     0.36400
N773        N  0.67783231  0.45618142  0.10162453    -0.90200
H774        H  0.71456896  0.38849956  0.14613002     0.17500
H775        H  0.53742928  0.37028537  0.10298260     0.17500
N776        N  0.57395038  0.30258560  0.14739409    -0.89200
H777        H  0.71462654  0.45478273  0.11265913     0.34900
H778        H  0.66128941  0.48262244  0.11916306     0.40000
H779        H  0.59014264  0.27615616  0.12958047     0.39600
H780        H  0.53706098  0.30424702  0.13664671     0.34500
C781        C  0.85174089  0.11020088  0.08922735    -0.27200
C782        C  0.90022468  0.09581967  0.09840506    -0.15300
C783        C  0.92622952  0.11412080  0.13572874     0.35300
C784        C  0.90335205  0.14678092  0.16280128    -0.26700
C785        C  0.85471954  0.16091308  0.15372862    -0.15900
C786        C  0.82899513  0.14265881  0.11637317     0.36400
N787        N  0.78010474  0.15755815  0.10541262    -0.90200
H788        H  0.83180172  0.09713400  0.06001792     0.17500
H789        H  0.92299119  0.16015401  0.19202753     0.17500
N790        N  0.97540567  0.09909858  0.14628151    -0.89200
H791        H  0.75633247  0.13058362  0.10521690     0.34900
H792        H  0.78061608  0.16950151  0.07301379     0.40000
H793        H  0.97288584  0.06624793  0.15457517     0.39600
H794        H  0.98950594  0.11602979  0.17470680     0.34500
C795        C  0.85055365  0.39571659  0.41277563    -0.27200
C796        C  0.89993259  0.40774181  0.40507294    -0.15300
C797        C  0.92504648  0.38969258  0.36753979     0.35300
C798        C  0.90050394  0.35942803  0.33882789    -0.26700
C799        C  0.85110340  0.34750851  0.34642800    -0.15900
C800        C  0.82591268  0.36559087  0.38390267     0.36400
N801        N  0.77588091  0.35279494  0.39287938    -0.90200
H802        H  0.83149251  0.40904957  0.44209798     0.17500
H803        H  0.91960081  0.34608538  0.30952603     0.17500
N804        N  0.97486182  0.40283948  0.35820052    -0.89200
H805        H  0.76260945  0.36929627  0.42168725     0.34900
H806        H  0.77638500  0.31946188  0.39973335     0.40000
H807        H  0.97395334  0.43611211  0.35119506     0.39600
H808        H  0.98810957  0.38631470  0.32937108     0.34500
C809        C  0.87049372  0.17208926  0.37311931    -0.27200
C810        C  0.85165131  0.14463366  0.33788758    -0.15300
C811        C  0.85604754  0.09888567  0.34150997     0.35300
C812        C  0.87968413  0.08203866  0.37956516    -0.26700
C813        C  0.89899175  0.10963201  0.41443311    -0.15900
C814        C  0.89379620  0.15516676  0.41103430     0.36400
N815        N  0.91177625  0.18454232  0.44594560    -0.90200
H816        H  0.86689235  0.20733801  0.37171631     0.17500
H817        H  0.88333576  0.04686106  0.38163570     0.17500
N818        N  0.83782962  0.06958228  0.30639829    -0.89200
H819        H  0.88192016  0.20338687  0.45787624     0.34900
H820        H  0.93725958  0.20563659  0.43187900     0.40000
H821        H  0.79918161  0.07075836  0.30728437     0.39600
H822        H  0.84757181  0.03724959  0.31282258     0.34500
C823        C  0.64857862  0.41534870  0.39260540    -0.27200
C824        C  0.60784444  0.39809988  0.41548037    -0.15300
C825        C  0.58694861  0.35828775  0.40031172     0.35300
C826        C  0.60596669  0.33754856  0.36159301    -0.26700
C827        C  0.64621966  0.35515001  0.33827913    -0.15900
C828        C  0.66757637  0.39466975  0.35387968     0.36400
N829        N  0.70887692  0.41325371  0.33118926    -0.90200
H830        H  0.66526112  0.44585239  0.40443556     0.17500
H831        H  0.58929583  0.30702300  0.34983130     0.17500
N832        N  0.54582308  0.33968279  0.42322461    -0.89200
H833        H  0.72205159  0.44104725  0.34893801     0.34900
H834        H  0.69585603  0.42406012  0.30033845     0.40000
H835        H  0.55911039  0.33146148  0.95089335     0.39600
H836        H  0.53316495  0.31141272  0.40598187     0.34500
C837        C  0.91489349  0.35341874  0.10307813    -0.27200
C838        C  0.90439733  0.39635499  0.09120413    -0.15300
C839        C  0.86795403  0.42069646  0.11599992     0.35300
C840        C  0.84225012  0.40085790  0.15058367    -0.26700
C841        C  0.85289819  0.35798622  0.16252851    -0.15900
C842        C  0.89022463  0.33404616  0.13852866     0.36400
N843        N  0.90330932  0.29008360  0.14995184    -0.90200
H844        H  0.94319089  0.33489935  0.08505429     0.17500
H845        H  0.81384148  0.41929004  0.16855396     0.17500
N846        N  0.85699022  0.46557922  0.10653739    -0.89200
H847        H  0.92035806  0.29175863  0.18162736     0.34900
H848        H  0.92959397  0.27670228  0.12777516     0.40000
H849        H  0.88688305  0.48437530  0.11854418     0.39600
H850        H  0.82616934  0.47690131  0.12460167     0.34500
O851        O  0.92397848  0.45899098  0.54767695    -0.81000
O852        O  0.59288174  0.04018399  0.55351287    -0.81100
O853        O  0.53093464  0.44847845  0.57096132    -0.81100
O854        O  0.95718517  0.05895276  0.55401099    -0.81000
O855        O  0.60384085  0.45517890  0.54158436    -0.81100
O856        O  0.88353720  0.03361373  0.53453338    -0.81100
O857        O  0.55268647  0.09542259  0.52313090    -0.81000
O858        O  0.96198348  0.39584007  0.52902498    -0.81100
C859        C  0.93016949  0.41753451  0.55280056     1.08600
C860        C  0.58036582  0.07977500  0.55364564     1.08500
C861        C  0.57713272  0.44194082  0.57243457     1.08700
C862        C  0.91014241  0.05845380  0.56023384     1.08500
O863        O  0.92130600  0.04847552  0.95563122    -0.81100
O864        O  0.59674749  0.46784165  0.94788611    -0.81100
O865        O  0.97401592  0.42931238  0.94772397    -0.81100
O866        O  0.52927626  0.06169041  0.93211179    -0.81000
O867        O  0.60272627  0.05095439  0.96108173    -0.81100
O868        O  0.90458004  0.46125133  0.96100095    -0.81100
O869        O  0.95413909  0.11175795  0.98052893    -0.81000
O870        O  0.55561501  0.41158305  0.97596213    -0.81100
Co871      Co  0.94080042  0.50287345  0.50014394     1.51500
Co872      Co  0.59377859  0.00145068  0.00035480     1.51700
Co873      Co  0.99910912  0.44420457  0.50865570     1.51600
Co874      Co  0.99559207  0.06340307  0.99591701     1.51500
O875        O  0.01850704  0.50324207  0.49863488    -1.43000
C876        C  0.92518171  0.09047346  0.95345435     1.08600
C877        C  0.58506008  0.42764035  0.94698543     1.08700
C878        C  0.92849792  0.43321035  0.93885039     1.08600
C879        C  0.57572532  0.06730075  0.93134320     1.08600
O880        O  0.85206200  0.29018124  0.78863986    -0.81000
O881        O  0.65161191  0.20041921  0.78465301    -0.81100
O882        O  0.69791777  0.34422987  0.76982526    -0.81100
O883        O  0.79626049  0.14452149  0.77531427    -0.81000
O884        O  0.65788995  0.28853951  0.79898997    -0.81100
O885        O  0.83146590  0.20779867  0.79725137    -0.80700
O886        O  0.72402128  0.19180845  0.81648578    -0.81000
O887        O  0.78225642  0.32086118  0.80325743    -0.81100
C888        C  0.82784555  0.31724245  0.81185423     1.08600
C889        C  0.67768841  0.18529017  0.81574017     1.08500
C890        C  0.66892093  0.32865756  0.79922969     1.08700
C891        C  0.82626271  0.16609679  0.80115660     1.08500
O892        O  0.85476646  0.21195617  0.71176582    -0.81100
O893        O  0.65032212  0.30039884  0.70769535    -0.81100
O894        O  0.79300993  0.35912316  0.72092145    -0.81100
O895        O  0.70332638  0.15847983  0.72557134    -0.81000
O896        O  0.66535004  0.21383835  0.69311903    -0.81100
O897        O  0.83072215  0.29567708  0.70278064    -0.81100
O898        O  0.78385163  0.18627811  0.69452581    -0.81000
O899        O  0.72362565  0.30969898  0.67975385    -0.81100
Co900      Co  0.81274172  0.25129107  0.74942088     1.51500
Co901      Co  0.66086378  0.25068421  0.74627641     1.51700
Co902      Co  0.75496869  0.31110456  0.74073017     1.51600
Co903      Co  0.75706067  0.19302271  0.75696766     1.51500
O904        O  0.73494696  0.25211058  0.74989504    -1.43000
C905        C  0.82954744  0.18675440  0.68716331     1.08600
C906        C  0.67729845  0.31576411  0.67817878     1.08700
C907        C  0.82468956  0.33709076  0.69727400     1.08600
C908        C  0.67735686  0.17408922  0.69377368     1.08600
C909        C  0.60556814  0.08767523  0.63195233    -0.27200
C910        C  0.60142680  0.10651057  0.58963399    -0.15300
C911        C  0.62560687  0.14557483  0.58074784     0.35300
C912        C  0.65347425  0.16565860  0.61507085    -0.26700
C913        C  0.65726632  0.14701954  0.65752992    -0.15900
C914        C  0.63342220  0.10773240  0.66627278     0.36400
N915        N  0.63632921  0.08923562  0.70999983    -0.90200
H916        H  0.58723898  0.05695630  0.63797123     0.17500
H917        H  0.67174571  0.19639921  0.60904157     0.17500
N918        N  0.62275228  0.16392170  0.53695308    -0.89200
H919        H  0.61710093  0.05967205  0.71026780     0.34900
H920        H  0.61823925  0.11070038  0.73264682     0.40000
H921        H  0.64199049  0.14140199  0.01369644     0.39600
H922        H  0.64273931  0.19276580  0.03526033     0.34500
C923        C  0.65240841  0.10182107  0.90399167    -0.27200
C924        C  0.60051620  0.09640753  0.89969416    -0.15300
C925        C  0.57432157  0.12150926  0.86858178     0.35300
C926        C  0.60041390  0.15134778  0.84304136    -0.26700
C927        C  0.65234825  0.15649432  0.84726871    -0.15900
C928        C  0.67830390  0.13137525  0.87827855     0.36400
N929        N  0.73091465  0.13530710  0.88366531    -0.90200
H930        H  0.67355912  0.08320617  0.92788244     0.17500
H931        H  0.57975798  0.17028685  0.81909767     0.17500
N932        N  0.52155713  0.11713720  0.86321540    -0.89200
H933        H  0.73855690  0.14435530  0.91723281     0.34900
H934        H  0.74689754  0.10460665  0.87696387     0.40000
H935        H  0.50779123  0.13925697  0.84003524     0.39600
H936        H  0.51461902  0.08587218  0.84944575     0.34500
C937        C  0.67660456  0.38563286  0.63882642    -0.27200
C938        C  0.65333316  0.34598601  0.64723422    -0.15300
C939        C  0.60308254  0.33981550  0.63439024     0.35300
C940        C  0.57720847  0.37350823  0.61354162    -0.26700
C941        C  0.60064229  0.41288362  0.60465284    -0.15900
C942        C  0.65065749  0.41933602  0.61791293     0.36400
N943        N  0.67480714  0.46014847  0.60989754    -0.90200
H944        H  0.71441328  0.39098962  0.65023434     0.17500
H945        H  0.53938345  0.36816082  0.60215869     0.17500
N946        N  0.57858046  0.29919692  0.64257107    -0.89200
H947        H  0.71152970  0.45957475  0.62155943     0.34900
H948        H  0.65657519  0.48461452  0.62879829     0.40000
H949        H  0.59631088  0.27459459  0.62341488     0.39600
H950        H  0.54171601  0.30007824  0.63139738     0.34500
C951        C  0.84325219  0.10923081  0.58584542    -0.27200
C952        C  0.88868773  0.08879163  0.59491274    -0.15300
C953        C  0.91628003  0.10283088  0.63336831     0.35300
C954        C  0.89762643  0.13639888  0.66208125    -0.26700
C955        C  0.85183061  0.15644480  0.65306996    -0.15900
C956        C  0.82494218  0.14328587  0.61413311     0.36400
N957        N  0.77945507  0.16520701  0.60308381    -0.90200
H958        H  0.82287975  0.09983275  0.55553230     0.17500
H959        H  0.91833208  0.14586941  0.69220790     0.17500
N960        N  0.96283974  0.08262021  0.64377420    -0.89200
H961        H  0.76415931  0.15184009  0.57327377     0.34900
H962        H  0.78798870  0.19775976  0.59698913     0.40000
H963        H  0.96035611  0.06948416  0.67560170     0.39600
H964        H  0.98999130  0.10695679  0.64526690     0.34500
C965        C  0.85338503  0.39326552  0.91268889    -0.27200
C966        C  0.90314023  0.40434671  0.90536539    -0.15300
C967        C  0.92804504  0.38608430  0.86783262     0.35300
C968        C  0.90284591  0.35667867  0.83863631    -0.26700
C969        C  0.85307464  0.34565848  0.84584106    -0.15900
C970        C  0.82809067  0.36396007  0.88336646     0.36400
N971        N  0.77757960  0.35229607  0.89189367    -0.90200
H972        H  0.83446598  0.40679631  0.94200191     0.17500
H973        H  0.92180920  0.34324070  0.80930797     0.17500
N974        N  0.97834437  0.39813468  0.85897241    -0.89200
H975        H  0.76458178  0.36884757  0.92080075     0.34900
H976        H  0.77699855  0.31891182  0.89843009     0.40000
H977        H  0.97852563  0.43153281  0.85233476     0.39600
H978        H  0.99133000  0.38162350  0.83008363     0.34500
C979        C  0.86581819  0.17311249  0.87655909    -0.27200
C980        C  0.85192241  0.14581535  0.83936773    -0.15300
C981        C  0.86260585  0.10079108  0.84002433     0.35300
C982        C  0.88644754  0.08413568  0.87782849    -0.26700
C983        C  0.89995796  0.11128878  0.91525131    -0.15900
C984        C  0.89012882  0.15649847  0.91424630     0.36400
N985        N  0.90380102  0.18528026  0.95149391    -0.90200
H986        H  0.85750028  0.20782286  0.87643922     0.17500
H987        H  0.89488073  0.04944356  0.87770577     0.17500
N988        N  0.85068488  0.07227799  0.80205999    -0.89200
H989        H  0.89052365  0.21697989  0.94658377     0.34900
H990        H  0.94240091  0.18763642  0.95185222     0.40000
H991        H  0.81219010  0.06862007  0.80114592     0.39600
H992        H  0.86526991  0.04096949  0.80643902     0.34500
C993        C  0.64739052  0.41782126  0.88750802    -0.27200
C994        C  0.60732287  0.40031142  0.91101568    -0.15300
C995        C  0.58687704  0.35999268  0.89660185     0.35300
C996        C  0.60641507  0.33859600  0.85856290    -0.26700
C997        C  0.64652300  0.35610492  0.83506923    -0.15900
C998        C  0.66677392  0.39649543  0.84935371     0.36400
N999        N  0.70730896  0.41538188  0.82586171    -0.90200
H1000       H  0.66344600  0.44885641  0.89846754     0.17500
H1001       H  0.59037728  0.30755384  0.84759583     0.17500
N1002       N  0.54590973  0.34131531  0.91972034    -0.89200
H1003       H  0.71957396  0.44406723  0.84258092     0.34900
H1004       H  0.69374413  0.42482388  0.79467816     0.40000
H1005       H  0.55882627  0.32968958  0.45438980     0.39600
H1006       H  0.53332379  0.31292069  0.90269180     0.34500
C1007       C  0.91259797  0.35360092  0.59945089    -0.27200
C1008       C  0.90221076  0.39697073  0.58915369    -0.15300
C1009       C  0.86651767  0.42070178  0.61509594     0.35300
C1010       C  0.84231719  0.40064361  0.65020647    -0.26700
C1011       C  0.85250684  0.35720346  0.66048973    -0.15900
C1012       C  0.88784751  0.33311757  0.63415134     0.36400
N1013       N  0.89854967  0.28785430  0.64207740    -0.90200
H1014       H  0.93994702  0.33526363  0.58005249     0.17500
H1015       H  0.81503340  0.41936910  0.66932197     0.17500
N1016       N  0.85443035  0.46532303  0.60626142    -0.89200
H1017       H  0.92862460  0.27671532  0.62290527     0.34900
H1018       H  0.86805428  0.26962368  0.63040854     0.40000
H1019       H  0.86166103  0.48442305  0.63538650     0.39600
H1020       H  0.81648348  0.46727370  0.59916692     0.34500
O1021       O  0.92502385  0.95977073  0.04897292    -0.81000
O1022       O  0.58076017  0.53973192  0.05537278    -0.81100
O1023       O  0.53108973  0.94554314  0.06950478    -0.81100
O1024       O  0.97274517  0.56470486  0.05657475    -0.81000
O1025       O  0.60389284  0.95219743  0.03969140    -0.81100
O1026       O  0.90253644  0.53821293  0.03817918    -0.81100
O1027       O  0.54309706  0.59567508  0.02534963    -0.81000
O1028       O  0.96359811  0.89667436  0.03126130    -0.81100
C1029       C  0.93143200  0.91841759  0.05456289     1.08600
C1030       C  0.57026829  0.57966558  0.05573993     1.08500
C1031       C  0.57730296  0.93905822  0.07068730     1.08700
C1032       C  0.92686346  0.56353441  0.06337892     1.08500
O1033       O  0.92065982  0.54734440  0.45384297    -0.81100
O1034       O  0.59710126  0.96421566  0.44852942    -0.81100
O1035       O  0.96867185  0.93078909  0.44744191    -0.81100
O1036       O  0.52737921  0.56443974  0.43368999    -0.81000
O1037       O  0.60086874  0.55437874  0.46310210    -0.81100
O1038       O  0.90133735  0.96413661  0.46695965    -0.81100
O1039       O  0.95412855  0.61068355  0.47770866    -0.81000
O1040       O  0.55848482  0.90881845  0.47986077    -0.81100
Co1041     Co  0.94178016  0.00332766  0.00108298     1.51500
Co1042     Co  0.59260240  0.50434241  0.50221065     1.51700
Co1043     Co  0.00030523  0.94497442  0.01010978     1.51600
Co1044     Co  0.99514206  0.56239626  0.49388711     1.51500
O1045       O  0.01939085  0.00397041  0.99925421    -1.43000
C1046       C  0.92482769  0.58926719  0.45108282     1.08600
C1047       C  0.58691885  0.92398794  0.44974166     1.08700
C1048       C  0.92331673  0.93688381  0.44107872     1.08600
C1049       C  0.57387850  0.56962879  0.43263356     1.08600
O1050       O  0.85207706  0.79131756  0.28902307    -0.81000
O1051       O  0.65273529  0.69853551  0.28464463    -0.81100
O1052       O  0.69744143  0.84302987  0.27068943    -0.81100
O1053       O  0.79794730  0.64348941  0.27156039    -0.81000
O1054       O  0.65876677  0.78671658  0.30018953    -0.81100
O1055       O  0.83251542  0.70680006  0.29474054    -0.80700
O1056       O  0.72588523  0.68866543  0.31465288    -0.81000
O1057       O  0.78166688  0.82072259  0.30341938    -0.81100
C1058       C  0.82728750  0.81814103  0.31218077     1.08600
C1059       C  0.67949081  0.68275966  0.31491509     1.08500
C1060       C  0.66952476  0.82692688  0.30061963     1.08700
C1061       C  0.82757631  0.66495244  0.29791181     1.08500
O1062       O  0.85413474  0.71410963  0.20977533    -0.81100
O1063       O  0.64996416  0.79951557  0.20914717    -0.81100
O1064       O  0.79152278  0.85941317  0.22122715    -0.81100
O1065       O  0.70333551  0.65721209  0.22343002    -0.81000
O1066       O  0.66454112  0.71313271  0.19290410    -0.81100
O1067       O  0.83010349  0.79661402  0.20234830    -0.81100
O1068       O  0.78410603  0.68664116  0.19196510    -0.81000
O1069       O  0.72275474  0.80851370  0.18009649    -0.81100
Co1070     Co  0.81280126  0.75210024  0.24908809     1.51500
Co1071     Co  0.66106640  0.74939707  0.24688498     1.51700
Co1072     Co  0.75446501  0.81054646  0.24084407     1.51600
Co1073     Co  0.75763909  0.69172167  0.25463952     1.51500
O1074       O  0.73514340  0.75124117  0.24988285    -1.43000
C1075       C  0.82988822  0.68820539  0.18498205     1.08600
C1076       C  0.67637439  0.81437224  0.17895983     1.08700
C1077       C  0.82399317  0.83816260  0.19780981     1.08600
C1078       C  0.67595539  0.67320124  0.19275641     1.08600
C1079       C  0.59971597  0.58753623  0.13320106    -0.27200
C1080       C  0.59371812  0.60631505  0.09103587    -0.15300
C1081       C  0.61801059  0.64530740  0.08143078     0.35300
C1082       C  0.64766473  0.66514295  0.11482650    -0.26700
C1083       C  0.65337646  0.64643377  0.15710657    -0.15900
C1084       C  0.62939682  0.60733396  0.16653636     0.36400
N1085       N  0.63404095  0.58868532  0.21006539    -0.90200
H1086       H  0.58136320  0.55700109  0.13992673     0.17500
H1087       H  0.66601625  0.69569444  0.10815775     0.17500
N1088       N  0.61348664  0.66389781  0.03784020    -0.89200
H1089       H  0.61443476  0.55935873  0.21098841     0.34900
H1090       H  0.61729502  0.61030974  0.23342596     0.40000
H1091       H  0.63978150  0.64099829  0.51467046     0.39600
H1092       H  0.64540801  0.69182228  0.53692482     0.34500
C1093       C  0.65108701  0.59289506  0.39587501    -0.27200
C1094       C  0.59900770  0.59661307  0.39926132    -0.15300
C1095       C  0.57449927  0.62936376  0.37522653     0.35300
C1096       C  0.60215023  0.65769304  0.34975237    -0.26700
C1097       C  0.65425834  0.65458160  0.34706008    -0.15900
C1098       C  0.67897145  0.62154220  0.37039905     0.36400
N1099       N  0.73182693  0.61649674  0.36738997    -0.90200
H1100       H  0.67055870  0.56776727  0.41390502     0.17500
H1101       H  0.58225524  0.68258247  0.33172105     0.17500
N1102       N  0.52194759  0.63568320  0.37673233    -0.89200
H1103       H  0.74783881  0.64329076  0.38371253     0.34900
H1104       H  0.74385928  0.58874932  0.38491325     0.40000
H1105       H  0.50460412  0.60680216  0.36502714     0.39600
H1106       H  0.51187878  0.64259040  0.40988703     0.34500
C1107       C  0.67710792  0.88152666  0.13545518    -0.27200
C1108       C  0.65198627  0.84398538  0.14775775    -0.15300
C1109       C  0.60069698  0.83965496  0.13780847     0.35300
C1110       C  0.57574950  0.87316219  0.11588787    -0.26700
C1111       C  0.60103938  0.91043481  0.10314524    -0.15900
C1112       C  0.65208889  0.91506226  0.11361901     0.36400
N1113       N  0.67830500  0.95384519  0.10187336    -0.90200
H1114       H  0.71584845  0.88552329  0.14451111     0.17500
H1115       H  0.53701415  0.86918742  0.10680291     0.17500
N1116       N  0.57417087  0.80114635  0.14993651    -0.89200
H1117       H  0.71551300  0.95197827  0.11176273     0.34900
H1118       H  0.66277891  0.98027764  0.12010301     0.40000
H1119       H  0.58906896  0.77453035  0.13153157     0.39600
H1120       H  0.53682467  0.80337098  0.14060640     0.34500
C1121       C  0.85110875  0.60172857  0.09195773    -0.27200
C1122       C  0.90219725  0.59346297  0.09659054    -0.15300
C1123       C  0.92936721  0.61744861  0.12964261     0.35300
C1124       C  0.90547560  0.64942548  0.15676943    -0.26700
C1125       C  0.85445494  0.65789511  0.15199399    -0.15900
C1126       C  0.82718873  0.63367406  0.11910138     0.36400
N1127       N  0.77532650  0.64175715  0.11264052    -0.90200
H1128       H  0.82965863  0.58413213  0.06629722     0.17500
H1129       H  0.92690679  0.66696051  0.18248232     0.17500
N1130       N  0.98115318  0.60914794  0.13620773    -0.89200
H1131       H  0.75633735  0.61253956  0.11737481     0.34900
H1132       H  0.76957800  0.65064650  0.07943471     0.40000
H1133       H  0.98673552  0.60008964  0.16939948     0.39600
H1134       H  0.00028356  0.63829799  0.13164389     0.34500
C1135       C  0.84885312  0.89534481  0.41370662    -0.27200
C1136       C  0.89724564  0.90977672  0.40596722    -0.15300
C1137       C  0.92272588  0.89328539  0.36756927     0.35300
C1138       C  0.89956717  0.86242651  0.33835112    -0.26700
C1139       C  0.85131700  0.84776833  0.34627068    -0.15900
C1140       C  0.82590330  0.86405971  0.38456850     0.36400
N1141       N  0.77755822  0.84771090  0.39450761    -0.90200
H1142       H  0.82974385  0.90698872  0.44368118     0.17500
H1143       H  0.91895667  0.85043837  0.30864107     0.17500
N1144       N  0.97201782  0.90801968  0.35829361    -0.89200
H1145       H  0.76391054  0.86280230  0.42390722     0.34900
H1146       H  0.78130575  0.81437033  0.40075740     0.40000
H1147       H  0.96986317  0.94141386  0.35188014     0.39600
H1148       H  0.98580247  0.89233636  0.32923892     0.34500
C1149       C  0.86788837  0.67194778  0.37294314    -0.27200
C1150       C  0.85266339  0.64444710  0.33633010    -0.15300
C1151       C  0.86041711  0.59902837  0.33835012     0.35300
C1152       C  0.88395991  0.58240384  0.37633105    -0.26700
C1153       C  0.89939153  0.60988861  0.41287590    -0.15900
C1154       C  0.89124687  0.65529683  0.41103694     0.36400
N1155       N  0.90547660  0.68429411  0.44794346    -0.90200
H1156       H  0.86123598  0.70689663  0.37217805     0.17500
H1157       H  0.89048572  0.54743920  0.37708965     0.17500
N1158       N  0.84534768  0.56994870  0.30179659    -0.89200
H1159       H  0.89279308  0.71611190  0.44268937     0.34900
H1160       H  0.94411224  0.68609203  0.44826261     0.40000
H1161       H  0.80671279  0.56856044  0.30195348     0.39600
H1162       H  0.85769108  0.53801531  0.30715131     0.34500
C1163       C  0.65284716  0.91156748  0.39418213    -0.27200
C1164       C  0.60967943  0.89603651  0.41461529    -0.15300
C1165       C  0.58608143  0.85843140  0.39680868     0.35300
C1166       C  0.60529471  0.83795787  0.35806947    -0.26700
C1167       C  0.64802043  0.85385081  0.33722564    -0.15900
C1168       C  0.67189393  0.89127218  0.35527718     0.36400
N1169       N  0.71577078  0.90792618  0.33493865    -0.90200
H1170       H  0.67128638  0.94049135  0.40805576     0.17500
H1171       H  0.58683335  0.80903402  0.34423708     0.17500
N1172       N  0.54200315  0.84203123  0.41698327    -0.89200
H1173       H  0.73039404  0.93409837  0.35433750     0.34900
H1174       H  0.70527583  0.92071920  0.30420249     0.40000
H1175       H  0.54883913  0.82848551  0.94720409     0.39600
H1176       H  0.52771991  0.81551952  0.39791336     0.34500
C1177       C  0.91653471  0.85628676  0.10440605    -0.27200
C1178       C  0.90321342  0.89810560  0.09089077    -0.15300
C1179       C  0.86459632  0.92092738  0.11405168     0.35300
C1180       C  0.83989127  0.90119025  0.14916912    -0.26700
C1181       C  0.85296677  0.85919927  0.16241807    -0.15900
C1182       C  0.89209025  0.83668494  0.13969360     0.36400
N1183       N  0.90763122  0.79386241  0.15223966    -0.90200
H1184       H  0.94652600  0.83862313  0.08783901     0.17500
H1185       H  0.80989544  0.91882318  0.16576349     0.17500
N1186       N  0.84990693  0.96417625  0.10217728    -0.89200
H1187       H  0.94511894  0.79521213  0.16123789     0.34900
H1188       H  0.90391769  0.77254569  0.12415403     0.40000
H1189       H  0.85418770  0.98504976  0.13051969     0.39600
H1190       H  0.81234644  0.96357161  0.09330761     0.34500
O1191       O  0.93830801  0.96133566  0.55681736    -0.81000
O1192       O  0.58872136  0.54099589  0.55528897    -0.81100
O1193       O  0.53454616  0.94521322  0.56980109    -0.81100
O1194       O  0.96993660  0.56683585  0.55696312    -0.81000
O1195       O  0.60727577  0.95367752  0.54033228    -0.81100
O1196       O  0.89927098  0.54122479  0.53846480    -0.81100
O1197       O  0.55094483  0.59701081  0.52428581    -0.81000
O1198       O  0.96293055  0.89511711  0.53037650    -0.81100
C1199       C  0.93721620  0.91873392  0.55809542     1.08600
C1200       C  0.57788477  0.58089331  0.55512637     1.08500
C1201       C  0.58080408  0.93871152  0.57059143     1.08700
C1202       C  0.92415843  0.56592908  0.56380114     1.08500
O1203       O  0.92460685  0.54541668  0.95385563    -0.81100
O1204       O  0.59397630  0.96289212  0.94795814    -0.81100
O1205       O  0.97195502  0.93353284  0.94812364    -0.81100
O1206       O  0.52470098  0.56897850  0.93343639    -0.81000
O1207       O  0.59804415  0.55693387  0.96309848    -0.81100
O1208       O  0.90214844  0.96450323  0.96212726    -0.81100
O1209       O  0.95969422  0.60827479  0.97724285    -0.81000
O1210       O  0.55475864  0.90799423  0.97918406    -0.81100
Co1211     Co  0.94065959  0.00664288  0.50623312     1.51500
Co1212     Co  0.58954678  0.50519977  0.00059987     1.51700
Co1213     Co  0.99817801  0.94280928  0.50705397     1.51600
Co1214     Co  0.99919806  0.55941060  0.99370569     1.51500
O1215       O  0.01533832  0.99904036  0.49034504    -1.43000
C1216       C  0.92969795  0.58728617  0.95096213     1.08600
C1217       C  0.58321036  0.92278881  0.94887092     1.08700
C1218       C  0.92635424  0.93709897  0.93941402     1.08600
C1219       C  0.57114630  0.57391472  0.93349304     1.08600
O1220       O  0.85304083  0.79220966  0.79003207    -0.81000
O1221       O  0.65540468  0.69624844  0.78543671    -0.81100
O1222       O  0.69671466  0.84133974  0.77073526    -0.81100
O1223       O  0.80314553  0.64387388  0.77214322    -0.81000
O1224       O  0.65711802  0.78495400  0.79946027    -0.81100
O1225       O  0.83549488  0.70746096  0.79678845    -0.80700
O1226       O  0.72903527  0.68648772  0.81573716    -0.81000
O1227       O  0.78246167  0.82176252  0.80414050    -0.81100
C1228       C  0.82813949  0.81909801  0.81283267     1.08600
C1229       C  0.68260576  0.68043502  0.81550852     1.08500
C1230       C  0.66772505  0.82522396  0.79998754     1.08700
C1231       C  0.83195301  0.66537363  0.79912787     1.08500
O1232       O  0.85795408  0.71477381  0.71330099    -0.81100
O1233       O  0.65134540  0.79667329  0.70799368    -0.81100
O1234       O  0.79119472  0.85881889  0.72091106    -0.81100
O1235       O  0.70880687  0.65562556  0.72483727    -0.81000
O1236       O  0.67011138  0.71082517  0.69333967    -0.81100
O1237       O  0.83081483  0.79627206  0.70204382    -0.81100
O1238       O  0.78779678  0.68891570  0.69362929    -0.81000
O1239       O  0.72474716  0.80561212  0.68063341    -0.81100
Co1240     Co  0.81484138  0.75252260  0.75076649     1.51500
Co1241     Co  0.66308072  0.74706541  0.74683915     1.51700
Co1242     Co  0.75534970  0.80975475  0.74187168     1.51600
Co1243     Co  0.76129189  0.69156376  0.75630526     1.51500
O1244       O  0.73707217  0.75072428  0.75283908    -1.43000
C1245       C  0.83367946  0.69015840  0.68740227     1.08600
C1246       C  0.67851355  0.81156873  0.67833274     1.08700
C1247       C  0.82296273  0.83762231  0.69664487     1.08600
C1248       C  0.68228929  0.67115963  0.69349205     1.08600
C1249       C  0.60570364  0.58754934  0.63284522    -0.27200
C1250       C  0.60074587  0.60699132  0.59082810    -0.15300
C1251       C  0.62698436  0.64488329  0.58144920     0.35300
C1252       C  0.65704771  0.66350221  0.61510745    -0.26700
C1253       C  0.66149683  0.64435726  0.65728518    -0.15900
C1254       C  0.63633448  0.60578151  0.66626082     0.36400
N1255       N  0.64081989  0.58613002  0.70933384    -0.90200
H1256       H  0.58613945  0.55750892  0.63920039     0.17500
H1257       H  0.67645989  0.69364300  0.60886326     0.17500
N1258       N  0.62402877  0.66348313  0.53778448    -0.89200
H1259       H  0.62054405  0.55714417  0.70974816     0.34900
H1260       H  0.62480969  0.60756702  0.73331536     0.40000
H1261       H  0.63000278  0.64212333  0.01449589     0.39600
H1262       H  0.63335350  0.69309475  0.03682746     0.34500
C1263       C  0.63852136  0.58320900  0.87995415    -0.27200
C1264       C  0.59622722  0.60111741  0.90086634    -0.15300
C1265       C  0.58444723  0.64581549  0.89518732     0.35300
C1266       C  0.61497927  0.67077015  0.86843476    -0.26700
C1267       C  0.65762681  0.65305345  0.84801550    -0.15900
C1268       C  0.66875314  0.60811494  0.85281166     0.36400
N1269       N  0.70888880  0.58610561  0.82983640    -0.90200
H1270       H  0.64801105  0.54910774  0.88449922     0.17500
H1271       H  0.60524383  0.70477068  0.86357210     0.17500
N1272       N  0.54317561  0.66760737  0.91665875    -0.89200
H1273       H  0.69357857  0.56148090  0.80880140     0.34900
H1274       H  0.72743992  0.60681348  0.80881678     0.40000
H1275       H  0.52411535  0.64716223  0.93747130     0.39600
H1276       H  0.55735053  0.69280983  0.93766791     0.34500
C1277       C  0.67997453  0.87971110  0.63596669    -0.27200
C1278       C  0.65528267  0.84125479  0.64627763    -0.15300
C1279       C  0.60495498  0.83589376  0.63344532     0.35300
C1280       C  0.58008612  0.86966463  0.61160876    -0.26700
C1281       C  0.60465070  0.90831346  0.60164414    -0.15900
C1282       C  0.65513267  0.91344787  0.61405302     0.36400
N1283       N  0.68088432  0.95311599  0.60456323    -0.90200
H1284       H  0.71808339  0.88430830  0.64684481     0.17500
H1285       H  0.54197189  0.86507497  0.60074469     0.17500
N1286       N  0.57931812  0.79608648  0.64269133    -0.89200
H1287       H  0.71764873  0.95163731  0.61569022     0.34900
H1288       H  0.66394771  0.97870426  0.62308471     0.40000
H1289       H  0.59659457  0.77057137  0.62430617     0.39600
H1290       H  0.54266972  0.79739687  0.63125853     0.34500
C1291       C  0.85459174  0.61475191  0.58609652    -0.27200
C1292       C  0.90056745  0.59592960  0.59693329    -0.15300
C1293       C  0.92538796  0.60976639  0.63659458     0.35300
C1294       C  0.90395856  0.64211009  0.66484347    -0.26700
C1295       C  0.85786357  0.66076189  0.65408775    -0.15900
C1296       C  0.83332303  0.64727004  0.61419163     0.36400
N1297       N  0.78738794  0.66727677  0.60164779    -0.90200
H1298       H  0.83579474  0.60520552  0.55497862     0.17500
H1299       H  0.92273634  0.65167242  0.69596526     0.17500
N1300       N  0.97180613  0.59038179  0.64870941    -0.89200
H1301       H  0.76084636  0.64260112  0.59765647     0.34900
H1302       H  0.79209113  0.68146284  0.57057358     0.40000
H1303       H  0.96780841  0.57631340  0.67994307     0.39600
H1304       H  0.99796183  0.61540778  0.65226412     0.34500
C1305       C  0.85208240  0.89587884  0.91338094    -0.27200
C1306       C  0.90128613  0.90837663  0.90562246    -0.15300
C1307       C  0.92616577  0.89130926  0.86753449     0.35300
C1308       C  0.90176159  0.86116080  0.83855631    -0.26700
C1309       C  0.85267115  0.84842929  0.84642199    -0.15900
C1310       C  0.82756841  0.86585799  0.88426761     0.36400
N1311       N  0.77784718  0.85237058  0.89348645    -0.90200
H1312       H  0.83313396  0.90864993  0.94300922     0.17500
H1313       H  0.92074734  0.84844741  0.80892437     0.17500
N1314       N  0.97557376  0.90536414  0.85791191    -0.89200
H1315       H  0.76458157  0.86849001  0.92253128     0.34900
H1316       H  0.77892877  0.81899278  0.90003233     0.40000
H1317       H  0.97394753  0.93878219  0.85160152     0.39600
H1318       H  0.98868209  0.88957625  0.82862933     0.34500
C1319       C  0.87419824  0.67133574  0.87351750    -0.27200
C1320       C  0.85763216  0.64429407  0.83704875    -0.15300
C1321       C  0.86455593  0.59866886  0.83880043     0.35300
C1322       C  0.88789693  0.58143041  0.87659342    -0.26700
C1323       C  0.90434452  0.60846131  0.91305716    -0.15900
C1324       C  0.89764996  0.65406993  0.91128610     0.36400
N1325       N  0.91355395  0.68270620  0.94792588    -0.90200
H1326       H  0.86858665  0.70642375  0.87288537     0.17500
H1327       H  0.89356073  0.54634353  0.87722117     0.17500
N1328       N  0.84904512  0.56995481  0.80209685    -0.89200
H1329       H  0.90203038  0.71488922  0.94273744     0.34900
H1330       H  0.95221950  0.68335017  0.94776998     0.40000
H1331       H  0.81042804  0.56871981  0.80244996     0.39600
H1332       H  0.86121306  0.53790750  0.80708561     0.34500
C1333       C  0.64853994  0.91064130  0.89256819    -0.27200
C1334       C  0.60570857  0.89479230  0.91333145    -0.15300
C1335       C  0.58267250  0.85678757  0.89568965     0.35300
C1336       C  0.60246335  0.83605083  0.85715443    -0.26700
C1337       C  0.64501502  0.85228034  0.83613945    -0.15900
C1338       C  0.66786924  0.89036203  0.85376037     0.36400
N1339       N  0.71109747  0.90780164  0.83304182    -0.90200
H1340       H  0.66663871  0.93984719  0.90615263     0.17500
H1341       H  0.58464931  0.80666975  0.84366614     0.17500
N1342       N  0.53871301  0.84016271  0.91586760    -0.89200
H1343       H  0.72506053  0.93450745  0.85206616     0.34900
H1344       H  0.70000354  0.92002080  0.80220741     0.40000
H1345       H  0.55219239  0.82980545  0.44808408     0.39600
H1346       H  0.52494777  0.81325286  0.89704641     0.34500
C1347       C  0.89093495  0.85531273  0.58727301    -0.27200
C1348       C  0.90844668  0.89819866  0.59417297    -0.15300
C1349       C  0.89594522  0.92169258  0.63448485     0.35300
C1350       C  0.86631597  0.90187858  0.66658955    -0.26700
C1351       C  0.84979208  0.85883923  0.66006555    -0.15900
C1352       C  0.86141874  0.83549055  0.61948604     0.36400
N1353       N  0.84255601  0.79202068  0.61076595    -0.90200
H1354       H  0.89941893  0.83748048  0.55617435     0.17500
H1355       H  0.85755727  0.91961733  0.69767600     0.17500
N1356       N  0.91424728  0.96527190  0.64334671    -0.89200
H1357       H  0.85470512  0.77939474  0.57964692     0.34900
H1358       H  0.80396161  0.79433650  0.60849269     0.40000
H1359       H  0.95275314  0.96311421  0.64675643     0.39600
H1360       H  0.90099315  0.97812089  0.67398044     0.34500
loop_ 
_geom_bond_atom_site_label_1 
_geom_bond_atom_site_label_2 
_geom_bond_distance 
_geom_bond_site_symmetry_2 
_ccdc_geom_bond_type 
O1            C9   1.306       .  A
O1          Co21   2.090       .  S
O2           C10   1.255       .  A
O2         Co192   1.917       .  S
O3           C11   1.263       .  A
O3         Co703   1.992       .  S
O4           C12   1.258       .  A
O4         Co194   2.009   1_554  S
O5           C11   1.252       .  A
O5         Co532   1.958       .  S
O6           C12   1.246       .  A
O6         Co361   1.974       .  S
O7           C10   1.276       .  A
O7         Co874   2.004   1_454  S
O8            C9   1.285       .  A
O8          Co23   1.900       .  S
C9          C158   1.497       .  S
C10          C60   1.450       .  S
C11          C91   1.469       .  S
C12         C102   1.486       .  S
O13          C26   1.295       .  A
O13        Co531   2.051       .  S
O14          C27   1.263       .  A
O14        Co362   1.917       .  S
O15          C28   1.259       .  A
O15        Co193   2.007       .  S
O16          C29   1.263       .  A
O16        Co704   1.993   1_455  S
O17          C29   1.262       .  A
O17         Co22   1.984       .  S
O18          C28   1.248       .  A
O18        Co191   1.959       .  S
O19          C26   1.281       .  A
O19         Co24   1.915       .  S
O20          C27   1.285       .  A
O20        Co873   2.023   1_455  S
Co21        O346   1.931       .  S
Co21        O523   2.068   1_554  S
Co21        O188   2.011   1_554  S
Co21         O25   2.086   1_554  S
Co22        O172   1.924       .  S
Co22        O515   1.959   1_545  S
Co22        O354   1.920   1_545  S
Co22       O1215   2.024   1_545  S
Co23        O683   2.013       .  S
Co23        O185   1.964   1_554  S
Co23        O870   2.025   1_554  S
Co23         O25   1.867   1_554  S
Co24        O174   2.008       .  S
Co24        O857   2.002       .  S
Co24        O696   1.990       .  S
Co24        O535   1.928       .  S
O25       Co1212   2.024   1_556  S
O25        Co534   1.986       .  S
C26         C133   1.489       .  S
C27         C144   1.464       .  S
C28         C116   1.481       .  S
C29          C74   1.476       .  S
O30          C38   1.264       .  A
O30         Co50   2.013       .  S
O31          C39   1.261       .  A
O31         Co51   1.981       .  S
O32          C40   1.290       .  A
O32         Co52   2.028       .  S
O33          C41   1.274       .  A
O33         Co53   1.924       .  S
O34          C40   1.269       .  A
O34         Co51   1.918       .  S
O35          C41   1.290       .  A
O35         Co50   2.067       .  S
O36          C39   1.264       .  A
O36         Co53   1.995       .  S
O37          C38   1.251       .  A
O37         Co52   1.958       .  S
C38         C119   1.484       .  S
C39          C77   1.475       .  S
C40         C147   1.464       .  S
C41         C130   1.491       .  S
O42          C55   1.278       .  A
O42         Co50   1.932       .  S
O43          C56   1.245       .  A
O43         Co51   1.955       .  S
O44          C57   1.284       .  A
O44         Co52   1.901       .  S
O45          C58   1.269       .  A
O45         Co53   2.004       .  S
O46          C58   1.250       .  A
O46         Co51   1.922       .  S
O47          C57   1.306       .  A
O47         Co50   2.093       .  S
O48          C55   1.285       .  A
O48         Co53   2.048       .  S
O49          C56   1.254       .  A
O49         Co52   2.009       .  S
Co50         O54   2.085       .  S
Co51         O54   2.024       .  S
Co52         O54   1.868       .  S
Co53         O54   1.990       .  S
C55         C105   1.488       .  S
C56          C88   1.465       .  S
C57         C161   1.498       .  S
C58          C63   1.452       .  S
C59          C60   1.410       .  A
C59          C64   1.394       .  A
C59          H66   1.085       .  S
C60          C61   1.399       .  A
C61          C62   1.391       .  A
C61          N68   1.438       .  S
C62          C63   1.409       .  A
C62          H67   1.084       .  S
C63          C64   1.402       .  A
C64          N65   1.439       .  S
N65          H69   1.045       .  S
N65          H70   1.047       .  S
N68         H241   1.047       .  S
N68         H242   1.044       .  S
H71         N238   1.047       .  S
H72         N238   1.045       .  S
C73          C74   1.405       .  A
C73          C78   1.399       .  A
C73          H80   1.085       .  S
C74          C75   1.418       .  A
C75          C76   1.400       .  A
C75          N82   1.439       .  S
C76          C77   1.405       .  A
C76          H81   1.085       .  S
C77          C78   1.417       .  A
C78          N79   1.438       .  S
N79          H83   1.045       .  S
N79          H84   1.039       .  S
N82          H85   1.039       .  S
N82          H86   1.045       .  S
C87          C88   1.398       .  A
C87          C92   1.402       .  A
C87          H94   1.084       .  S
C88          C89   1.413       .  A
C89          C90   1.402       .  A
C89          N96   1.439       .  S
C90          C91   1.399       .  A
C90          H95   1.084       .  S
C91          C92   1.417       .  A
C92          N93   1.439       .  S
N93          H97   1.045       .  S
N93          H98   1.046       .  S
N96          H99   1.046       .  S
N96         H100   1.045       .  S
C101        C102   1.405       .  A
C101        C106   1.406       .  A
C101        H108   1.084       .  S
C102        C103   1.412       .  A
C103        C104   1.408       .  A
C103        N110   1.437       .  S
C104        C105   1.403       .  A
C104        H109   1.083       .  S
C105        C106   1.417       .  A
C106        N107   1.434       .  S
N107        H111   1.047       .  S
N107        H112   1.045       .  S
N110        H113   1.044       .  S
N110        H114   1.047       .  S
C115        C116   1.403       .  A
C115        C120   1.404       .  A
C115        H122   1.084       .  S
C116        C117   1.411       .  A
C117        C118   1.408       .  A
C117        N124   1.437       .  S
C118        C119   1.404       .  A
C118        H123   1.083       .  S
C119        C120   1.417       .  A
C120        N121   1.439       .  S
N121        H125   1.046       .  S
N121        H126   1.046       .  S
N124        H127   1.046       .  S
N124        H128   1.045       .  S
C129        C130   1.412       .  A
C129        C134   1.407       .  A
C129        H136   1.083       .  S
C130        C131   1.411       .  A
C131        C132   1.406       .  A
C131        N138   1.438       .  S
C132        C133   1.412       .  A
C132        H137   1.083       .  S
C133        C134   1.409       .  A
C134        N135   1.438       .  S
N135        H139   1.045       .  S
N135        H140   1.045       .  S
N138        H141   1.044       .  S
N138        H142   1.045       .  S
C143        C144   1.411       .  A
C143        C148   1.394       .  A
C143        H150   1.084       .  S
C144        C145   1.403       .  A
C145        C146   1.395       .  A
C145        N152   1.438       .  S
C146        C147   1.411       .  A
C146        H151   1.084       .  S
C147        C148   1.404       .  A
C148        N149   1.439       .  S
N149        H153   1.047       .  S
N149        H154   1.044       .  S
N152        H156   1.047       .  S
N152        H325   1.044       .  S
H155        N322   1.043       .  S
C157        C158   1.404       .  A
C157        C162   1.411       .  A
C157        H164   1.083       .  S
C158        C159   1.417       .  A
C159        C160   1.407       .  A
C159        N166   1.433       .  S
C160        C161   1.405       .  A
C160        H165   1.084       .  S
C161        C162   1.421       .  A
C162        N163   1.438       .  S
N163        H167   1.046       .  S
N163        H168   1.046       .  S
N166        H169   1.046       .  S
N166        H170   1.045       .  S
O171        C179   1.292       .  A
O171       Co191   2.043       .  S
O172        C180   1.250       .  A
O173        C181   1.264       .  A
O173       Co873   1.995   1_455  S
O174        C182   1.257       .  A
O175        C181   1.255       .  A
O175       Co362   1.968       .  S
O176        C182   1.245       .  A
O176       Co531   1.963       .  S
O177        C180   1.270       .  A
O177       Co704   2.008   1_455  S
O178        C179   1.285       .  A
O178       Co193   1.906       .  S
C179        C328   1.483       .  S
C180        C230   1.452       .  S
C181        C261   1.478       .  S
C182        C272   1.480       .  S
O183        C196   1.294       .  A
O183       Co361   2.042   1_556  S
O184        C197   1.263       .  A
O184       Co532   1.914   1_556  S
O185        C198   1.251       .  A
O186        C199   1.265       .  A
O186       Co874   1.989   1_455  S
O187        C199   1.261       .  A
O187       Co192   1.982   1_556  S
O188        C198   1.263       .  A
O189        C196   1.281       .  A
O189       Co194   1.904       .  S
O190        C197   1.287       .  A
O190       Co703   2.030   1_556  S
Co191       O516   1.968       .  S
Co191       O353   2.040       .  S
Co191       O195   2.096       .  S
Co192       O345   1.969   1_545  S
Co192       O524   1.924   1_544  S
Co192      O1045   2.005   1_554  S
Co193       O853   1.993       .  S
Co193       O700   2.032       .  S
Co193       O195   1.911       .  S
Co194       O687   2.002   1_556  S
Co194       O866   1.993       .  S
Co194       O365   1.918       .  S
O195      Co1042   2.000       .  S
O195       Co364   1.925       .  S
C196        C303   1.482       .  S
C197        C314   1.466       .  S
C198        C286   1.485       .  S
C199        C244   1.472       .  S
O200        C208   1.248       .  A
O200       Co220   1.961       .  S
O201        C209   1.260       .  A
O201       Co221   1.979       .  S
O202        C210   1.284       .  A
O202       Co222   2.022       .  S
O203        C211   1.281       .  A
O203       Co223   1.915       .  S
O204        C210   1.263       .  A
O204       Co221   1.920       .  S
O205        C211   1.292       .  A
O205       Co220   2.034       .  S
O206        C209   1.267       .  A
O206       Co223   1.992       .  S
O207        C208   1.259       .  A
O207       Co222   2.012       .  S
C208        C289   1.483       .  S
C209        C247   1.473       .  S
C210        C317   1.465       .  S
C211        C300   1.484       .  S
O212        C225   1.247       .  A
O212       Co220   1.968       .  S
O213        C226   1.255       .  A
O213       Co221   1.965       .  S
O214        C227   1.284       .  A
O214       Co222   1.911       .  S
O215        C228   1.278       .  A
O215       Co223   2.010       .  S
O216        C228   1.255       .  A
O216       Co221   1.920       .  S
O217        C227   1.291       .  A
O217       Co220   2.037       .  S
O218        C225   1.257       .  A
O218       Co223   2.004       .  S
O219        C226   1.265       .  A
O219       Co222   1.995       .  S
Co220       O224   2.097       .  S
Co221       O224   2.005       .  S
Co222       O224   1.921       .  S
Co223       O224   1.931       .  S
C225        C275   1.482       .  S
C226        C258   1.477       .  S
C227        C331   1.484       .  S
C228        C233   1.451       .  S
C229        C230   1.408       .  A
C229        C234   1.393       .  A
C229        H236   1.084       .  S
C230        C231   1.402       .  A
C231        C232   1.395       .  A
C231        N238   1.439       .  S
C232        C233   1.409       .  A
C232        H237   1.085       .  S
C233        C234   1.400       .  A
C234        N235   1.438       .  S
N235        H239   1.045       .  S
N235        H240   1.046       .  S
C243        C244   1.402       .  A
C243        C248   1.400       .  A
C243        H250   1.085       .  S
C244        C245   1.418       .  A
C245        C246   1.402       .  A
C245        N252   1.438       .  S
C246        C247   1.404       .  A
C246        H251   1.085       .  S
C247        C248   1.417       .  A
C248        N249   1.438       .  S
N249        H253   1.046       .  S
N249        H254   1.040       .  S
N252        H255   1.038       .  S
N252        H256   1.047       .  S
C257        C258   1.399       .  A
C257        C262   1.405       .  A
C257        H264   1.084       .  S
C258        C259   1.418       .  A
C259        C260   1.405       .  A
C259        N266   1.439       .  S
C260        C261   1.399       .  A
C260        H265   1.084       .  S
C261        C262   1.418       .  A
C262        N263   1.439       .  S
N263        H267   1.045       .  S
N263        H268   1.047       .  S
N266        H269   1.047       .  S
N266        H270   1.045       .  S
C271        C272   1.407       .  A
C271        C276   1.406       .  A
C271        H278   1.084       .  S
C272        C273   1.408       .  A
C273        C274   1.404       .  A
C273        N280   1.433       .  S
C274        C275   1.407       .  A
C274        H279   1.084       .  S
C275        C276   1.411       .  A
C276        N277   1.438       .  S
N277        H281   1.045       .  S
N277        H282   1.046       .  S
N280        H283   1.045       .  S
N280        H284   1.046       .  S
C285        C286   1.405       .  A
C285        C290   1.410       .  A
C285        H292   1.083       .  S
C286        C287   1.416       .  A
C287        C288   1.405       .  A
C287        N294   1.439       .  S
C288        C289   1.404       .  A
C288        H293   1.084       .  S
C289        C290   1.411       .  A
C290        N291   1.437       .  S
N291        H295   1.045       .  S
N291        H296   1.046       .  S
N294        H297   1.046       .  S
N294        H298   1.046       .  S
C299        C300   1.413       .  A
C299        C304   1.401       .  A
C299        H306   1.083       .  S
C300        C301   1.408       .  A
C301        C302   1.403       .  A
C301        N308   1.438       .  S
C302        C303   1.412       .  A
C302        H307   1.083       .  S
C303        C304   1.407       .  A
C304        N305   1.438       .  S
N305        H309   1.044       .  S
N305        H310   1.048       .  S
N308        H311   1.044       .  S
N308        H312   1.046       .  S
C313        C314   1.413       .  A
C313        C318   1.395       .  A
C313        H320   1.084       .  S
C314        C315   1.402       .  A
C315        C316   1.395       .  A
C315        N322   1.438       .  S
C316        C317   1.411       .  A
C316        H321   1.084       .  S
C317        C318   1.403       .  A
C318        N319   1.439       .  S
N319        H323   1.046       .  S
N319        H324   1.045       .  S
N322        H326   1.048       .  S
C327        C328   1.397       .  A
C327        C332   1.398       .  A
C327        H334   1.084       .  S
C328        C329   1.422       .  A
C329        C330   1.401       .  A
C329        N336   1.433       .  S
C330        C331   1.398       .  A
C330        H335   1.084       .  S
C331        C332   1.422       .  A
C332        N333   1.434       .  S
N333        H337   1.046       .  S
N333        H338   1.046       .  S
N336        H339   1.046       .  S
N336        H340   1.045       .  S
O341        C349   1.292       .  A
O341       Co361   2.041   1_565  S
O342        C350   1.255       .  A
O342       Co532   1.914       .  S
O343        C351   1.264       .  A
O343      Co1043   1.993       .  S
O344        C352   1.285       .  A
O344       Co534   2.046   1_554  S
O345        C351   1.255       .  A
O346        C352   1.277       .  A
O347        C350   1.275       .  A
O347      Co1214   2.000   1_454  S
O348        C349   1.285       .  A
O348       Co363   1.908       .  S
C349        C498   1.483       .  S
C350        C400   1.440       .  S
C351        C431   1.474       .  S
C352        C442   1.484       .  S
O353        C366   1.293       .  A
O354        C367   1.270       .  A
O355        C368   1.260       .  A
O355       Co533   2.009       .  S
O356        C369   1.267       .  A
O356      Co1044   1.993   1_455  S
O357        C369   1.261       .  A
O357       Co362   1.982       .  S
O358        C368   1.245       .  A
O358       Co531   1.949   1_565  S
O359        C366   1.281       .  A
O359       Co364   1.908       .  S
O360        C367   1.289       .  A
O360      Co1213   2.023   1_455  S
Co361       O528   1.956   1_544  S
Co361       O365   2.101   1_554  S
Co362       O512   1.919       .  S
Co362       O875   2.003       .  S
Co363      O1023   1.991       .  S
Co363       O525   2.001   1_554  S
Co363      O1210   2.034   1_554  S
Co363       O365   1.911   1_564  S
Co364       O514   2.008       .  S
Co364      O1197   2.010       .  S
Co364      O1036   1.994       .  S
O365       Co872   2.002   1_556  S
C366        C473   1.480       .  S
C367        C484   1.461       .  S
C368        C456   1.472       .  S
C369        C414   1.474       .  S
O370        C378   1.247       .  A
O370       Co390   1.955       .  S
O371        C379   1.262       .  A
O371       Co391   1.984       .  S
O372        C380   1.285       .  A
O372       Co392   2.022       .  S
O373        C381   1.281       .  A
O373       Co393   1.913       .  S
O374        C380   1.263       .  A
O374       Co391   1.920       .  S
O375        C381   1.291       .  A
O375       Co390   2.033       .  S
O376        C379   1.267       .  A
O376       Co393   1.991       .  S
O377        C378   1.259       .  A
O377       Co392   2.007       .  S
C378        C459   1.473       .  S
C379        C417   1.475       .  S
C380        C487   1.462       .  S
C381        C470   1.480       .  S
O382        C395   1.246       .  A
O382       Co390   1.980       .  S
O383        C396   1.256       .  A
O383       Co391   1.969       .  S
O384        C397   1.285       .  A
O384       Co392   1.914       .  S
O385        C398   1.275       .  A
O385       Co393   1.999       .  S
O386        C398   1.255       .  A
O386       Co391   1.916       .  S
O387        C397   1.290       .  A
O387       Co390   2.034       .  S
O388        C395   1.254       .  A
O388       Co393   2.002       .  S
O389        C396   1.264       .  A
O389       Co392   1.993       .  S
Co390       O394   2.102       .  S
Co391       O394   2.004       .  S
Co392       O394   1.917       .  S
Co393       O394   1.922       .  S
C395        C445   1.482       .  S
C396        C428   1.475       .  S
C397        C501   1.486       .  S
C398        C403   1.440       .  S
C399        C400   1.407       .  A
C399        C404   1.389       .  A
C399        H406   1.085       .  S
C400        C401   1.399       .  A
C401        C402   1.390       .  A
C401        N408   1.439       .  S
C402        C403   1.407       .  A
C402        H407   1.085       .  S
C403        C404   1.398       .  A
C404        N405   1.439       .  S
N405        H409   1.044       .  S
N405        H410   1.047       .  S
N408        H581   1.046       .  S
N408        H582   1.045       .  S
H411        N578   1.047       .  S
H412        N578   1.045       .  S
C413        C414   1.404       .  A
C413        C418   1.402       .  A
C413        H420   1.085       .  S
C414        C415   1.418       .  A
C415        C416   1.401       .  A
C415        N422   1.438       .  S
C416        C417   1.403       .  A
C416        H421   1.085       .  S
C417        C418   1.419       .  A
C418        N419   1.438       .  S
N419        H423   1.046       .  S
N419        H424   1.039       .  S
N422        H425   1.038       .  S
N422        H426   1.047       .  S
C427        C428   1.400       .  A
C427        C432   1.406       .  A
C427        H434   1.084       .  S
C428        C429   1.416       .  A
C429        C430   1.404       .  A
C429        N436   1.439       .  S
C430        C431   1.399       .  A
C430        H435   1.084       .  S
C431        C432   1.416       .  A
C432        N433   1.439       .  S
N433        H437   1.045       .  S
N433        H438   1.047       .  S
N436        H439   1.046       .  S
N436        H440   1.045       .  S
C441        C442   1.401       .  A
C441        C446   1.403       .  A
C441        H448   1.084       .  S
C442        C443   1.419       .  A
C443        C444   1.410       .  A
C443        N450   1.439       .  S
C444        C445   1.405       .  A
C444        H449   1.084       .  S
C445        C446   1.408       .  A
C446        N447   1.431       .  S
N447        H451   1.046       .  S
N447        H452   1.045       .  S
N450        H453   1.046       .  S
N450        H454   1.046       .  S
C455        C456   1.407       .  A
C455        C460   1.404       .  A
C455        H462   1.084       .  S
C456        C457   1.407       .  A
C457        C458   1.403       .  A
C457        N464   1.438       .  S
C458        C459   1.407       .  A
C458        H463   1.084       .  S
C459        C460   1.408       .  A
C460        N461   1.438       .  S
N461        H465   1.045       .  S
N461        H466   1.046       .  S
N464        H467   1.046       .  S
N464        H468   1.046       .  S
C469        C470   1.413       .  A
C469        C474   1.402       .  A
C469        H476   1.083       .  S
C470        C471   1.406       .  A
C471        C472   1.402       .  A
C471        N478   1.438       .  S
C472        C473   1.412       .  A
C472        H477   1.083       .  S
C473        C474   1.406       .  A
C474        N475   1.438       .  S
N475        H479   1.042       .  S
N475        H480   1.048       .  S
N478        H481   1.044       .  S
N478        H482   1.046       .  S
C483        C484   1.409       .  A
C483        C488   1.394       .  A
C483        H490   1.084       .  S
C484        C485   1.404       .  A
C485        C486   1.395       .  A
C485        N492   1.439       .  S
C486        C487   1.411       .  A
C486        H491   1.084       .  S
C487        C488   1.403       .  A
C488        N489   1.438       .  S
N489        H493   1.047       .  S
N489        H494   1.044       .  S
N492        H665   1.045       .  S
N492        H496   1.046       .  S
H495        N662   1.044       .  S
C497        C498   1.397       .  A
C497        C502   1.401       .  A
C497        H504   1.084       .  S
C498        C499   1.420       .  A
C499        C500   1.400       .  A
C499        N506   1.433       .  S
C500        C501   1.399       .  A
C500        H505   1.084       .  S
C501        C502   1.426       .  A
C502        N503   1.439       .  S
N503        H507   1.046       .  S
N503        H508   1.046       .  S
N506        H509   1.046       .  S
N506        H510   1.046       .  S
O511        C519   1.293       .  A
O511       Co531   2.046   1_565  S
O512        C520   1.256       .  A
O513        C521   1.255       .  A
O513      Co1213   2.010   1_455  S
O514        C522   1.257       .  A
O515        C521   1.246       .  A
O516        C522   1.247       .  A
O517        C520   1.276       .  A
O517      Co1044   2.002   1_455  S
O518        C519   1.285       .  A
O518       Co533   1.913       .  S
C519        C668   1.481       .  S
C520        C570   1.440       .  S
C521        C601   1.468       .  S
C522        C612   1.480       .  S
O523        C536   1.289       .  A
O524        C537   1.265       .  A
O525        C538   1.258       .  A
O526        C539   1.268       .  A
O526      Co1214   1.996   1_455  S
O527        C539   1.260       .  A
O527       Co532   1.972   1_556  S
O528        C538   1.247       .  A
O529        C536   1.275       .  A
O529       Co534   1.923       .  S
O530        C537   1.286       .  A
O530      Co1043   2.026   1_556  S
Co531       O535   2.100       .  S
Co532       O705   2.004   1_554  S
Co533      O1193   1.992       .  S
Co533      O1040   2.028       .  S
Co533       O535   1.918   1_565  S
Co534      O1027   2.005   1_556  S
Co534      O1206   1.993       .  S
O535       Co702   2.008       .  S
C536        C643   1.489       .  S
C537        C654   1.465       .  S
C538        C626   1.472       .  S
C539        C584   1.486       .  S
O540        C548   1.245       .  A
O540       Co560   1.946       .  S
O541        C549   1.260       .  A
O541       Co561   1.975       .  S
O542        C550   1.286       .  A
O542       Co562   2.026       .  S
O543        C551   1.282       .  A
O543       Co563   1.915       .  S
O544        C550   1.264       .  A
O544       Co561   1.924       .  S
O545        C551   1.294       .  A
O545       Co560   2.046       .  S
O546        C549   1.267       .  A
O546       Co563   1.992       .  S
O547        C548   1.259       .  A
O547       Co562   2.008       .  S
C548        C629   1.471       .  S
C549        C587   1.487       .  S
C550        C657   1.467       .  S
C551        C640   1.487       .  S
O552        C565   1.244       .  A
O552       Co560   1.961       .  S
O553        C566   1.254       .  A
O553       Co561   1.964       .  S
O554        C567   1.285       .  A
O554       Co562   1.916       .  S
O555        C568   1.277       .  A
O555       Co563   2.005       .  S
O556        C568   1.256       .  A
O556       Co561   1.919       .  S
O557        C567   1.293       .  A
O557       Co560   2.042       .  S
O558        C565   1.258       .  A
O558       Co563   2.011       .  S
O559        C566   1.263       .  A
O559       Co562   1.993       .  S
Co560       O564   2.096       .  S
Co561       O564   2.005       .  S
Co562       O564   1.919       .  S
Co563       O564   1.928       .  S
C565        C615   1.478       .  S
C566        C598   1.472       .  S
C567        C671   1.481       .  S
C568        C573   1.441       .  S
C569        C570   1.406       .  A
C569        C574   1.392       .  A
C569        H576   1.085       .  S
C570        C571   1.399       .  A
C571        C572   1.391       .  A
C571        N578   1.439       .  S
C572        C573   1.406       .  A
C572        H577   1.085       .  S
C573        C574   1.399       .  A
C574        N575   1.439       .  S
N575        H579   1.045       .  S
N575        H580   1.047       .  S
C583        C584   1.414       .  A
C583        C588   1.406       .  A
C583        H590   1.083       .  S
C584        C585   1.404       .  A
C585        C586   1.401       .  A
C585        N592   1.432       .  S
C586        C587   1.413       .  A
C586        H591   1.084       .  S
C587        C588   1.410       .  A
C588        N589   1.438       .  S
N589        H593   1.044       .  S
N589        H594   1.047       .  S
N592        H595   1.044       .  S
N592        H596   1.047       .  S
C597        C598   1.400       .  A
C597        C602   1.404       .  A
C597        H604   1.084       .  S
C598        C599   1.416       .  A
C599        C600   1.403       .  A
C599        N606   1.439       .  S
C600        C601   1.398       .  A
C600        H605   1.084       .  S
C601        C602   1.413       .  A
C602        N603   1.439       .  S
N603        H607   1.045       .  S
N603        H608   1.047       .  S
N606        H609   1.046       .  S
N606        H610   1.046       .  S
C611        C612   1.407       .  A
C611        C616   1.404       .  A
C611        H618   1.084       .  S
C612        C613   1.408       .  A
C613        C614   1.404       .  A
C613        N620   1.433       .  S
C614        C615   1.407       .  A
C614        H619   1.084       .  S
C615        C616   1.407       .  A
C616        N617   1.432       .  S
N617        H621   1.046       .  S
N617        H622   1.045       .  S
N620        H623   1.045       .  S
N620        H624   1.046       .  S
C625        C626   1.407       .  A
C625        C630   1.404       .  A
C625        H632   1.084       .  S
C626        C627   1.408       .  A
C627        C628   1.401       .  A
C627        N634   1.438       .  S
C628        C629   1.406       .  A
C628        H633   1.084       .  S
C629        C630   1.407       .  A
C630        N631   1.438       .  S
N631        H635   1.045       .  S
N631        H636   1.046       .  S
N634        H637   1.045       .  S
N634        H638   1.046       .  S
C639        C640   1.411       .  A
C639        C644   1.402       .  A
C639        H646   1.084       .  S
C640        C641   1.407       .  A
C641        C642   1.405       .  A
C641        N648   1.432       .  S
C642        C643   1.412       .  A
C642        H647   1.083       .  S
C643        C644   1.407       .  A
C644        N645   1.432       .  S
N645        H649   1.046       .  S
N645        H650   1.045       .  S
N648        H651   1.046       .  S
N648        H652   1.045       .  S
C653        C654   1.410       .  A
C653        C658   1.396       .  A
C653        H660   1.084       .  S
C654        C655   1.403       .  A
C655        C656   1.397       .  A
C655        N662   1.438       .  S
C656        C657   1.411       .  A
C656        H661   1.084       .  S
C657        C658   1.404       .  A
C658        N659   1.438       .  S
N659        H663   1.047       .  S
N659        H664   1.044       .  S
N662        H666   1.047       .  S
C667        C668   1.396       .  A
C667        C672   1.400       .  A
C667        H674   1.084       .  S
C668        C669   1.423       .  A
C669        C670   1.406       .  A
C669        N676   1.439       .  S
C670        C671   1.397       .  A
C670        H675   1.084       .  S
C671        C672   1.419       .  A
C672        N673   1.434       .  S
N673        H677   1.046       .  S
N673        H678   1.046       .  S
N676        H679   1.045       .  S
N676        H680   1.047       .  S
O681        C689   1.291       .  A
O681       Co701   2.040   1_554  S
O682        C690   1.257       .  A
O682       Co872   1.917       .  S
O683        C691   1.256       .  A
O684        C692   1.256       .  A
O684       Co874   2.003   1_554  S
O685        C691   1.245       .  A
O685      Co1212   1.959       .  S
O686        C692   1.244       .  A
O686      Co1041   1.962       .  S
O687        C690   1.276       .  A
O688        C689   1.286       .  A
O688       Co703   1.913   1_655  S
C689        C838   1.489       .  S
C690        C740   1.441       .  S
C691        C771   1.473       .  S
C692        C782   1.475       .  S
O693        C706   1.288       .  A
O693      Co1211   2.061       .  S
O694        C707   1.262       .  A
O694      Co1042   1.916       .  S
O695        C708   1.260       .  A
O695       Co873   2.008       .  S
O696        C709   1.266       .  A
O697        C709   1.261       .  A
O697       Co702   1.983       .  S
O698        C708   1.244       .  A
O698       Co871   1.948       .  S
O699        C706   1.275       .  A
O699       Co704   1.925       .  S
O700        C707   1.287       .  A
Co701      O1026   1.962   1_556  S
Co701      O1203   2.043       .  S
Co701       O868   1.946       .  S
Co701       O705   2.095   1_655  S
Co702       O852   1.912       .  S
Co702      O1195   1.969   1_545  S
Co702      O1034   1.919   1_545  S
Co703       O865   2.010   1_454  S
Co703       O705   1.917   1_554  S
Co704       O854   2.047       .  S
Co704      O1215   1.988   1_645  S
O705      Co1214   1.926   1_455  S
C706        C813   1.488       .  S
C707        C824   1.469       .  S
C708        C796   1.473       .  S
C709        C754   1.473       .  S
O710        C718   1.244       .  A
O710       Co730   1.945       .  S
O711        C719   1.261       .  A
O711       Co731   1.983       .  S
O712        C720   1.287       .  A
O712       Co732   2.028       .  S
O713        C721   1.282       .  A
O713       Co733   1.920       .  S
O714        C720   1.264       .  A
O714       Co731   1.921       .  S
O715        C721   1.293       .  A
O715       Co730   2.043       .  S
O716        C719   1.266       .  A
O716       Co733   1.989       .  S
O717        C718   1.259       .  A
O717       Co732   2.009       .  S
C718        C799   1.473       .  S
C719        C757   1.472       .  S
C720        C827   1.470       .  S
C721        C810   1.490       .  S
O722        C735   1.243       .  A
O722       Co730   1.961       .  S
O723        C736   1.255       .  A
O723       Co731   1.968       .  S
O724        C737   1.286       .  A
O724       Co732   1.916       .  S
O725        C738   1.276       .  A
O725       Co733   2.001       .  S
O726        C738   1.256       .  A
O726       Co731   1.920       .  S
O727        C737   1.291       .  A
O727       Co730   2.039       .  S
O728        C735   1.256       .  A
O728       Co733   2.006       .  S
O729        C736   1.264       .  A
O729       Co732   1.995       .  S
Co730       O734   2.096       .  S
Co731       O734   2.006       .  S
Co732       O734   1.919       .  S
Co733       O734   1.927       .  S
C735        C785   1.476       .  S
C736        C768   1.478       .  S
C737        C841   1.488       .  S
C738        C743   1.440       .  S
C739        C740   1.406       .  A
C739        C744   1.390       .  A
C739        H746   1.085       .  S
C740        C741   1.399       .  A
C741        C742   1.392       .  A
C741        N748   1.439       .  S
C742        C743   1.407       .  A
C742        H747   1.085       .  S
C743        C744   1.399       .  A
C744        N745   1.439       .  S
N745        H749   1.045       .  S
N745        H750   1.046       .  S
N748        H921   1.047       .  S
N748        H922   1.044       .  S
H751        N918   1.047       .  S
H752        N918   1.045       .  S
C753        C754   1.402       .  A
C753        C758   1.401       .  A
C753        H760   1.085       .  S
C754        C755   1.418       .  A
C755        C756   1.400       .  A
C755        N762   1.437       .  S
C756        C757   1.401       .  A
C756        H761   1.085       .  S
C757        C758   1.418       .  A
C758        N759   1.437       .  S
N759        H763   1.049       .  S
N759        H764   1.036       .  S
N762        H765   1.038       .  S
N762        H766   1.047       .  S
C767        C768   1.400       .  A
C767        C772   1.404       .  A
C767        H774   1.084       .  S
C768        C769   1.418       .  A
C769        C770   1.404       .  A
C769        N776   1.439       .  S
C770        C771   1.398       .  A
C770        H775   1.084       .  S
C771        C772   1.416       .  A
C772        N773   1.439       .  S
N773        H777   1.044       .  S
N773        H778   1.047       .  S
N776        H779   1.047       .  S
N776        H780   1.045       .  S
C781        C782   1.406       .  A
C781        C786   1.401       .  A
C781        H788   1.084       .  S
C782        C783   1.410       .  A
C783        C784   1.405       .  A
C783        N790   1.438       .  S
C784        C785   1.407       .  A
C784        H789   1.084       .  S
C785        C786   1.406       .  A
C786        N787   1.433       .  S
N787        H791   1.047       .  S
N787        H792   1.044       .  S
N790        H793   1.045       .  S
N790        H794   1.046       .  S
C795        C796   1.407       .  A
C795        C800   1.403       .  A
C795        H802   1.084       .  S
C796        C797   1.407       .  A
C797        C798   1.402       .  A
C797        N804   1.438       .  S
C798        C799   1.407       .  A
C798        H803   1.084       .  S
C799        C800   1.407       .  A
C800        N801   1.438       .  S
N801        H805   1.045       .  S
N801        H806   1.046       .  S
N804        H807   1.045       .  S
N804        H808   1.046       .  S
C809        C810   1.413       .  A
C809        C814   1.401       .  A
C809        H816   1.084       .  S
C810        C811   1.411       .  A
C811        C812   1.408       .  A
C811        N818   1.437       .  S
C812        C813   1.412       .  A
C812        H817   1.083       .  S
C813        C814   1.405       .  A
C814        N815   1.432       .  S
N815        H819   1.046       .  S
N815        H820   1.045       .  S
N818        H821   1.044       .  S
N818        H822   1.045       .  S
C823        C824   1.413       .  A
C823        C828   1.396       .  A
C823        H830   1.084       .  S
C824        C825   1.402       .  A
C825        C826   1.397       .  A
C825        N832   1.438       .  S
C826        C827   1.413       .  A
C826        H831   1.084       .  S
C827        C828   1.403       .  A
C828        N829   1.438       .  S
N829        H833   1.047       .  S
N829        H834   1.044       .  S
N832       H1005   1.044       .  S
N832        H836   1.047       .  S
H835       N1002   1.045       .  S
C837        C838   1.398       .  A
C837        C842   1.403       .  A
C837        H844   1.083       .  S
C838        C839   1.426       .  A
C839        C840   1.404       .  A
C839        N846   1.439       .  S
C840        C841   1.398       .  A
C840        H845   1.084       .  S
C841        C842   1.425       .  A
C842        N843   1.439       .  S
N843        H847   1.045       .  S
N843        H848   1.046       .  S
N846        H849   1.046       .  S
N846        H850   1.046       .  S
O851        C859   1.291       .  A
O851       Co871   2.040       .  S
O852        C860   1.255       .  A
O853        C861   1.263       .  A
O854        C862   1.285       .  A
O855        C861   1.252       .  A
O855      Co1042   1.959       .  S
O856        C862   1.278       .  A
O856      Co1211   1.931       .  S
O857        C860   1.276       .  A
O858        C859   1.285       .  A
O858       Co873   1.910       .  S
C859       C1008   1.485       .  S
C860        C910   1.439       .  S
C861        C941   1.468       .  S
C862        C952   1.483       .  S
O863        C876   1.292       .  A
O863      Co1041   2.038   1_556  S
O864        C877   1.269       .  A
O864      Co1212   1.919   1_556  S
O865        C878   1.260       .  A
O866        C879   1.267       .  A
O867        C879   1.257       .  A
O867       Co872   1.962   1_556  S
O868        C878   1.245       .  A
O869        C876   1.281       .  A
O869       Co874   1.915       .  S
O870        C877   1.290       .  A
Co871      O1196   1.962       .  S
Co871      O1033   2.038       .  S
Co871       O875   2.099   1_655  S
Co872      O1025   1.956   1_545  S
Co872      O1204   1.922   1_544  S
Co873       O875   1.916   1_655  S
Co874      O1045   1.929   1_655  S
O875      Co1044   1.922   1_455  S
C876        C983   1.482       .  S
C877        C994   1.466       .  S
C878        C966   1.474       .  S
C879        C924   1.485       .  S
O880        C888   1.246       .  A
O880       Co900   1.948       .  S
O881        C889   1.258       .  A
O881       Co901   1.965       .  S
O882        C890   1.285       .  A
O882       Co902   2.024       .  S
O883        C891   1.281       .  A
O883       Co903   1.910       .  S
O884        C890   1.263       .  A
O884       Co901   1.919       .  S
O885        C891   1.292       .  A
O885       Co900   2.041       .  S
O886        C889   1.267       .  A
O886       Co903   1.993       .  S
O887        C888   1.260       .  A
O887       Co902   2.009       .  S
C888        C969   1.474       .  S
C889        C927   1.483       .  S
C890        C997   1.467       .  S
C891        C980   1.480       .  S
O892        C905   1.245       .  A
O892       Co900   1.976       .  S
O893        C906   1.252       .  A
O893       Co901   1.955       .  S
O894        C907   1.286       .  A
O894       Co902   1.909       .  S
O895        C908   1.278       .  A
O895       Co903   2.003       .  S
O896        C908   1.257       .  A
O896       Co901   1.915       .  S
O897        C907   1.291       .  A
O897       Co900   2.039       .  S
O898        C905   1.255       .  A
O898       Co903   2.005       .  S
O899        C906   1.264       .  A
O899       Co902   1.995       .  S
Co900       O904   2.100       .  S
Co901       O904   2.002       .  S
Co902       O904   1.914       .  S
Co903       O904   1.917       .  S
C905        C955   1.480       .  S
C906        C938   1.471       .  S
C907       C1011   1.486       .  S
C908        C913   1.440       .  S
C909        C910   1.407       .  A
C909        C914   1.390       .  A
C909        H916   1.085       .  S
C910        C911   1.398       .  A
C911        C912   1.391       .  A
C911        N918   1.439       .  S
C912        C913   1.408       .  A
C912        H917   1.085       .  S
C913        C914   1.399       .  A
C914        N915   1.439       .  S
N915        H919   1.045       .  S
N915        H920   1.047       .  S
C923        C924   1.415       .  A
C923        C928   1.398       .  A
C923        H930   1.083       .  S
C924        C925   1.407       .  A
C925        C926   1.404       .  A
C925        N932   1.438       .  S
C926        C927   1.415       .  A
C926        H931   1.083       .  S
C927        C928   1.402       .  A
C928        N929   1.433       .  S
N929        H933   1.047       .  S
N929        H934   1.045       .  S
N932        H935   1.048       .  S
N932        H936   1.044       .  S
C937        C938   1.399       .  A
C937        C942   1.403       .  A
C937        H944   1.084       .  S
C938        C939   1.418       .  A
C939        C940   1.401       .  A
C939        N946   1.439       .  S
C940        C941   1.397       .  A
C940        H945   1.084       .  S
C941        C942   1.416       .  A
C942        N943   1.439       .  S
N943        H947   1.048       .  S
N943        H948   1.044       .  S
N946        H949   1.045       .  S
N946        H950   1.047       .  S
C951        C952   1.402       .  A
C951        C956   1.407       .  A
C951        H958   1.084       .  S
C952        C953   1.415       .  A
C953        C954   1.407       .  A
C953        N960   1.434       .  S
C954        C955   1.405       .  A
C954        H959   1.084       .  S
C955        C956   1.410       .  A
C956        N957   1.437       .  S
N957        H961   1.046       .  S
N957        H962   1.045       .  S
N960        H963   1.045       .  S
N960        H964   1.046       .  S
C965        C966   1.408       .  A
C965        C970   1.404       .  A
C965        H972   1.084       .  S
C966        C967   1.407       .  A
C967        C968   1.402       .  A
C967        N974   1.438       .  S
C968        C969   1.407       .  A
C968        H973   1.084       .  S
C969        C970   1.408       .  A
C970        N971   1.438       .  S
N971        H975   1.046       .  S
N971        H976   1.046       .  S
N974        H977   1.047       .  S
N974        H978   1.044       .  S
C979        C980   1.412       .  A
C979        C984   1.404       .  A
C979        H986   1.084       .  S
C980        C981   1.406       .  A
C981        C982   1.402       .  A
C981        N988   1.438       .  S
C982        C983   1.412       .  A
C982        H987   1.083       .  S
C983        C984   1.407       .  A
C984        N985   1.438       .  S
N985        H989   1.046       .  S
N985        H990   1.045       .  S
N988        H991   1.046       .  S
N988        H992   1.045       .  S
C993        C994   1.411       .  A
C993        C998   1.395       .  A
C993       H1000   1.083       .  S
C994        C995   1.405       .  A
C995        C996   1.394       .  A
C995       N1002   1.439       .  S
C996        C997   1.412       .  A
C996       H1001   1.084       .  S
C997        C998   1.403       .  A
C998        N999   1.438       .  S
N999       H1003   1.047       .  S
N999       H1004   1.045       .  S
N1002      H1006   1.046       .  S
C1007      C1008   1.398       .  A
C1007      C1012   1.403       .  A
C1007      H1014   1.083       .  S
C1008      C1009   1.421       .  A
C1009      C1010   1.399       .  A
C1009      N1016   1.434       .  S
C1010      C1011   1.399       .  A
C1010      H1015   1.084       .  S
C1011      C1012   1.426       .  A
C1012      N1013   1.439       .  S
N1013      H1017   1.046       .  S
N1013      H1018   1.046       .  S
N1016      H1019   1.046       .  S
N1016      H1020   1.046       .  S
O1021      C1029   1.291       .  A
O1021     Co1041   2.040   1_565  S
O1022      C1030   1.251       .  A
O1022     Co1212   1.927       .  S
O1023      C1031   1.263       .  A
O1024      C1032   1.258       .  A
O1024     Co1214   2.011   1_554  S
O1025      C1031   1.253       .  A
O1026      C1032   1.244       .  A
O1027      C1030   1.270       .  A
O1028      C1029   1.285       .  A
O1028     Co1043   1.910   1_655  S
C1029      C1178   1.484       .  S
C1030      C1080   1.450       .  S
C1031      C1111   1.467       .  S
C1032      C1122   1.484       .  S
O1033      C1046   1.292       .  A
O1034      C1047   1.263       .  A
O1035      C1048   1.251       .  A
O1035     Co1213   1.963       .  S
O1036      C1049   1.267       .  A
O1037      C1049   1.259       .  A
O1037     Co1042   1.969       .  S
O1038      C1048   1.264       .  A
O1038     Co1211   2.017   1_565  S
O1039      C1046   1.281       .  A
O1039     Co1044   1.913       .  S
O1040      C1047   1.286       .  A
Co1041     O1208   1.947   1_544  S
Co1041     O1045   2.096   1_654  S
Co1042     O1192   1.908       .  S
Co1043     O1205   2.012   1_454  S
Co1043     O1045   1.917   1_564  S
Co1044     O1194   2.004       .  S
C1046      C1153   1.482       .  S
C1047      C1164   1.465       .  S
C1048      C1136   1.485       .  S
C1049      C1094   1.484       .  S
O1050      C1058   1.249       .  A
O1050     Co1070   1.966       .  S
O1051      C1059   1.258       .  A
O1051     Co1071   1.965       .  S
O1052      C1060   1.285       .  A
O1052     Co1072   2.023       .  S
O1053      C1061   1.282       .  A
O1053     Co1073   1.907       .  S
O1054      C1060   1.264       .  A
O1054     Co1071   1.923       .  S
O1055      C1061   1.294       .  A
O1055     Co1070   2.040       .  S
O1056      C1059   1.266       .  A
O1056     Co1073   1.994       .  S
O1057      C1058   1.259       .  A
O1057     Co1072   2.011       .  S
C1058      C1139   1.483       .  S
C1059      C1097   1.482       .  S
C1060      C1167   1.465       .  S
C1061      C1150   1.481       .  S
O1062      C1075   1.247       .  A
O1062     Co1070   1.970       .  S
O1063      C1076   1.251       .  A
O1063     Co1071   1.952       .  S
O1064      C1077   1.285       .  A
O1064     Co1072   1.913       .  S
O1065      C1078   1.279       .  A
O1065     Co1073   2.012       .  S
O1066      C1078   1.257       .  A
O1066     Co1071   1.923       .  S
O1067      C1077   1.291       .  A
O1067     Co1070   2.039       .  S
O1068      C1075   1.257       .  A
O1068     Co1073   2.005       .  S
O1069      C1076   1.264       .  A
O1069     Co1072   1.993       .  S
Co1070     O1074   2.097       .  S
Co1071     O1074   2.002       .  S
Co1072     O1074   1.917       .  S
Co1073     O1074   1.925       .  S
C1075      C1125   1.485       .  S
C1076      C1108   1.469       .  S
C1077      C1181   1.484       .  S
C1078      C1083   1.449       .  S
C1079      C1080   1.407       .  A
C1079      C1084   1.393       .  A
C1079      H1086   1.084       .  S
C1080      C1081   1.403       .  A
C1081      C1082   1.395       .  A
C1081      N1088   1.439       .  S
C1082      C1083   1.408       .  A
C1082      H1087   1.085       .  S
C1083      C1084   1.400       .  A
C1084      N1085   1.438       .  S
N1085      H1089   1.045       .  S
N1085      H1090   1.047       .  S
N1088      H1261   1.047       .  S
N1088      H1262   1.045       .  S
H1091      N1258   1.047       .  S
H1092      N1258   1.044       .  S
C1093      C1094   1.414       .  A
C1093      C1098   1.404       .  A
C1093      H1100   1.084       .  S
C1094      C1095   1.410       .  A
C1095      C1096   1.395       .  A
C1095      N1102   1.432       .  S
C1096      C1097   1.412       .  A
C1096      H1101   1.084       .  S
C1097      C1098   1.408       .  A
C1098      N1099   1.438       .  S
N1099      H1103   1.032       .  S
N1099      H1104   1.059       .  S
N1102      H1105   1.049       .  S
N1102      H1106   1.041       .  S
C1107      C1108   1.397       .  A
C1107      C1112   1.401       .  A
C1107      H1114   1.084       .  S
C1108      C1109   1.419       .  A
C1109      C1110   1.400       .  A
C1109      N1116   1.439       .  S
C1110      C1111   1.397       .  A
C1110      H1115   1.084       .  S
C1111      C1112   1.417       .  A
C1112      N1113   1.439       .  S
N1113      H1117   1.046       .  S
N1113      H1118   1.046       .  S
N1116      H1119   1.046       .  S
N1116      H1120   1.046       .  S
C1121      C1122   1.407       .  A
C1121      C1126   1.404       .  A
C1121      H1128   1.084       .  S
C1122      C1123   1.409       .  A
C1123      C1124   1.404       .  A
C1123      N1130   1.432       .  S
C1124      C1125   1.407       .  A
C1124      H1129   1.084       .  S
C1125      C1126   1.411       .  A
C1126      N1127   1.433       .  S
N1127      H1131   1.046       .  S
N1127      H1132   1.045       .  S
N1130      H1133   1.045       .  S
N1130      H1134   1.046   1_655  S
C1135      C1136   1.404       .  A
C1135      C1140   1.410       .  A
C1135      H1142   1.083       .  S
C1136      C1137   1.416       .  A
C1137      C1138   1.406       .  A
C1137      N1144   1.439       .  S
C1138      C1139   1.404       .  A
C1138      H1143   1.084       .  S
C1139      C1140   1.411       .  A
C1140      N1141   1.437       .  S
N1141      H1145   1.044       .  S
N1141      H1146   1.047       .  S
N1144      H1147   1.046       .  S
N1144      H1148   1.045       .  S
C1149      C1150   1.412       .  A
C1149      C1154   1.403       .  A
C1149      H1156   1.083       .  S
C1150      C1151   1.406       .  A
C1151      C1152   1.402       .  A
C1151      N1158   1.438       .  S
C1152      C1153   1.412       .  A
C1152      H1157   1.083       .  S
C1153      C1154   1.407       .  A
C1154      N1155   1.438       .  S
N1155      H1159   1.046       .  S
N1155      H1160   1.045       .  S
N1158      H1161   1.044       .  S
N1158      H1162   1.047       .  S
C1163      C1164   1.411       .  A
C1163      C1168   1.396       .  A
C1163      H1170   1.084       .  S
C1164      C1165   1.402       .  A
C1165      C1166   1.396       .  A
C1165      N1172   1.438       .  S
C1166      C1167   1.411       .  A
C1166      H1171   1.084       .  S
C1167      C1168   1.404       .  A
C1168      N1169   1.439       .  S
N1169      H1173   1.047       .  S
N1169      H1174   1.044       .  S
N1172      H1345   1.045       .  S
N1172      H1176   1.046       .  S
H1175      N1342   1.044       .  S
C1177      C1178   1.398       .  A
C1177      C1182   1.400       .  A
C1177      H1184   1.084       .  S
C1178      C1179   1.422       .  A
C1179      C1180   1.401       .  A
C1179      N1186   1.434       .  S
C1180      C1181   1.399       .  A
C1180      H1185   1.084       .  S
C1181      C1182   1.421       .  A
C1182      N1183   1.434       .  S
N1183      H1187   1.045       .  S
N1183      H1188   1.046       .  S
N1186      H1189   1.046       .  S
N1186      H1190   1.045       .  S
O1191      C1199   1.305       .  A
O1191     Co1211   2.083   1_565  S
O1192      C1200   1.253       .  A
O1193      C1201   1.264       .  A
O1194      C1202   1.255       .  A
O1195      C1201   1.255       .  A
O1196      C1202   1.244       .  A
O1197      C1200   1.277       .  A
O1198      C1199   1.284       .  A
O1198     Co1213   1.900       .  S
C1199      C1348   1.490       .  S
C1200      C1250   1.442       .  S
C1201      C1281   1.475       .  S
C1202      C1292   1.470       .  S
O1203      C1216   1.294       .  A
O1204      C1217   1.262       .  A
O1205      C1218   1.261       .  A
O1206      C1219   1.264       .  A
O1207      C1219   1.261       .  A
O1207     Co1212   1.983   1_556  S
O1208      C1218   1.245       .  A
O1209      C1216   1.280       .  A
O1209     Co1214   1.906       .  S
O1210      C1217   1.286       .  A
Co1211     O1215   2.085   1_645  S
Co1213     O1215   1.868   1_655  S
C1216      C1323   1.481       .  S
C1217      C1334   1.471       .  S
C1218      C1306   1.474       .  S
C1219      C1264   1.472       .  S
O1220      C1228   1.246       .  A
O1220     Co1240   1.947       .  S
O1221      C1229   1.261       .  A
O1221     Co1241   1.977       .  S
O1222      C1230   1.289       .  A
O1222     Co1242   2.032       .  S
O1223      C1231   1.280       .  A
O1223     Co1243   1.910       .  S
O1224      C1230   1.265       .  A
O1224     Co1241   1.923       .  S
O1225      C1231   1.295       .  A
O1225     Co1240   2.049       .  S
O1226      C1229   1.268       .  A
O1226     Co1243   1.991       .  S
O1227      C1228   1.260       .  A
O1227     Co1242   2.010       .  S
C1228      C1309   1.474       .  S
C1229      C1267   1.472       .  S
C1230      C1337   1.471       .  S
C1231      C1320   1.484       .  S
O1232      C1245   1.243       .  A
O1232     Co1240   1.962       .  S
O1233      C1246   1.252       .  A
O1233     Co1241   1.962       .  S
O1234      C1247   1.285       .  A
O1234     Co1242   1.915       .  S
O1235      C1248   1.275       .  A
O1235     Co1243   2.003       .  S
O1236      C1248   1.255       .  A
O1236     Co1241   1.919       .  S
O1237      C1247   1.296       .  A
O1237     Co1240   2.057       .  S
O1238      C1245   1.255       .  A
O1238     Co1243   2.004       .  S
O1239      C1246   1.262       .  A
O1239     Co1242   1.995       .  S
Co1240     O1244   2.102       .  S
Co1241     O1244   2.007       .  S
Co1242     O1244   1.913       .  S
Co1243     O1244   1.926       .  S
C1245      C1295   1.470       .  S
C1246      C1278   1.474       .  S
C1247      C1351   1.483       .  S
C1248      C1253   1.442       .  S
C1249      C1250   1.409       .  A
C1249      C1254   1.391       .  A
C1249      H1256   1.085       .  S
C1250      C1251   1.398       .  A
C1251      C1252   1.392       .  A
C1251      N1258   1.439       .  S
C1252      C1253   1.408       .  A
C1252      H1257   1.085       .  S
C1253      C1254   1.399       .  A
C1254      N1255   1.439       .  S
N1255      H1259   1.044       .  S
N1255      H1260   1.047       .  S
C1263      C1264   1.405       .  A
C1263      C1268   1.400       .  A
C1263      H1270   1.085       .  S
C1264      C1265   1.417       .  A
C1265      C1266   1.399       .  A
C1265      N1272   1.439       .  S
C1266      C1267   1.404       .  A
C1266      H1271   1.085       .  S
C1267      C1268   1.416       .  A
C1268      N1269   1.438       .  S
N1269      H1273   1.046       .  S
N1269      H1274   1.039       .  S
N1272      H1275   1.037       .  S
N1272      H1276   1.047       .  S
C1277      C1278   1.399       .  A
C1277      C1282   1.404       .  A
C1277      H1284   1.084       .  S
C1278      C1279   1.417       .  A
C1279      C1280   1.404       .  A
C1279      N1286   1.439       .  S
C1280      C1281   1.400       .  A
C1280      H1285   1.084       .  S
C1281      C1282   1.417       .  A
C1282      N1283   1.438       .  S
N1283      H1287   1.045       .  S
N1283      H1288   1.047       .  S
N1286      H1289   1.047       .  S
N1286      H1290   1.044       .  S
C1291      C1292   1.405       .  A
C1291      C1296   1.401       .  A
C1291      H1298   1.084       .  S
C1292      C1293   1.406       .  A
C1293      C1294   1.402       .  A
C1293      N1300   1.432       .  S
C1294      C1295   1.405       .  A
C1294      H1299   1.084       .  S
C1295      C1296   1.405       .  A
C1296      N1297   1.432       .  S
N1297      H1301   1.046       .  S
N1297      H1302   1.045       .  S
N1300      H1303   1.045       .  S
N1300      H1304   1.045       .  S
C1305      C1306   1.407       .  A
C1305      C1310   1.404       .  A
C1305      H1312   1.084       .  S
C1306      C1307   1.407       .  A
C1307      C1308   1.403       .  A
C1307      N1314   1.438       .  S
C1308      C1309   1.407       .  A
C1308      H1313   1.084       .  S
C1309      C1310   1.408       .  A
C1310      N1311   1.438       .  S
N1311      H1315   1.046       .  S
N1311      H1316   1.046       .  S
N1314      H1317   1.046       .  S
N1314      H1318   1.045       .  S
C1319      C1320   1.412       .  A
C1319      C1324   1.403       .  A
C1319      H1326   1.083       .  S
C1320      C1321   1.409       .  A
C1321      C1322   1.402       .  A
C1321      N1328   1.438       .  S
C1322      C1323   1.411       .  A
C1322      H1327   1.083       .  S
C1323      C1324   1.408       .  A
C1324      N1325   1.438       .  S
N1325      H1329   1.046       .  S
N1325      H1330   1.044       .  S
N1328      H1331   1.043       .  S
N1328      H1332   1.047       .  S
C1333      C1334   1.412       .  A
C1333      C1338   1.396       .  A
C1333      H1340   1.084       .  S
C1334      C1335   1.404       .  A
C1335      C1336   1.400       .  A
C1335      N1342   1.438       .  S
C1336      C1337   1.413       .  A
C1336      H1341   1.084       .  S
C1337      C1338   1.403       .  A
C1338      N1339   1.438       .  S
N1339      H1343   1.047       .  S
N1339      H1344   1.044       .  S
N1342      H1346   1.047       .  S
C1347      C1348   1.403       .  A
C1347      C1352   1.408       .  A
C1347      H1354   1.084       .  S
C1348      C1349   1.420       .  A
C1349      C1350   1.407       .  A
C1349      N1356   1.438       .  S
C1350      C1351   1.398       .  A
C1350      H1355   1.084       .  S
C1351      C1352   1.419       .  A
C1352      N1353   1.439       .  S
N1353      H1357   1.046       .  S
N1353      H1358   1.046       .  S
N1356      H1359   1.045       .  S
N1356      H1360   1.046       .  S
