geometry optimzed in LAMMPS
_audit_creation_date              2020-11-30 
_audit_creation_method            'lammps2cif' 
_symmetry_space_group_name_H-M    'P1' 
_symmetry_Int_Tables_number       1 
_symmetry_cell_setting            triclinic 
loop_ 
_symmetry_equiv_pos_as_xyz 
  x,y,z 
_cell_length_a                    30.76849466 
_cell_length_b                    30.944485076942115 
_cell_length_c                    30.878793410737693 
_cell_angle_alpha                 88.87777216728598 
_cell_angle_beta                  89.05920134106415 
_cell_angle_gamma                 90.59945537381124 
loop_ 
_atom_site_label 
_atom_site_type_symbol 
_atom_site_fract_x 
_atom_site_fract_y 
_atom_site_fract_z 
_atom_site_charge 
O1          O  0.54221722  0.06725649  0.86675604    -0.80900
O2          O  0.53307197  0.06482056  0.61953749    -0.82400
O3          O  0.62507454  0.05335123  0.73206164    -0.79400
O4          O  0.52193387  0.15144701  0.75105740    -0.77800
O5          O  0.44823703  0.15129388  0.75699342    -0.79600
O6          O  0.62406254  0.97962438  0.73717804    -0.80600
O7          O  0.56914194  0.10520180  0.66927557    -0.81900
O8          O  0.57801017  0.10255282  0.81075922    -0.82200
Eu9        Eu  0.54847697  0.07704457  0.74247085     2.39200
O10         O  0.48388109  0.07509445  0.70215544    -0.89700
O11         O  0.55034660  0.01628287  0.78990560    -0.93300
C12         C  0.56996525  0.09546017  0.85142143     1.01400
C13         C  0.56027459  0.09549136  0.62980006     1.01200
C14         C  0.64395211  0.01614884  0.73070620     1.01200
C15         C  0.48571605  0.17130071  0.75696354     0.99000
H16         H  0.57228699  0.01400118  0.68050163     0.28800
O17         O  0.54799035  0.01421427  0.70069102    -1.02100
H18         H  0.48779399  0.09952746  0.80837958     0.28800
O19         O  0.48768079  0.07423826  0.79058784    -1.04600
O20         O  0.43385687  0.95465228  0.63419615    -0.81800
O21         O  0.43889557  0.96610672  0.88175108    -0.81400
O22         O  0.56923310  0.92272492  0.67868763    -0.79800
O23         O  0.39358447  0.09822185  0.68136710    -0.83100
O24         O  0.39193152  0.09271713  0.82007532    -0.81000
O25         O  0.58281328  0.93121225  0.81399328    -0.79600
O26         O  0.45276907  0.87358756  0.76624235    -0.81200
O27         O  0.34758525  0.96946665  0.75157516    -0.83100
O28         O  0.52564698  0.87826956  0.75358947    -0.79800
O29         O  0.34778483  0.04272714  0.74610976    -0.82500
O30         O  0.53163747  0.95733873  0.62549259    -0.78200
O31         O  0.54674933  0.96417384  0.86968206    -0.78300
O32         O  0.43706329  0.06574914  0.87169640    -0.77900
O33         O  0.42839215  0.05798859  0.63132781    -0.81400
O34         O  0.40051461  0.91734478  0.69091952    -0.80800
O35         O  0.39671401  0.93027258  0.83372743    -0.79200
Eu36       Eu  0.48410197  0.01108628  0.66123993     2.39800
Eu37       Eu  0.49016138  0.01425160  0.83889672     2.39600
Eu38       Eu  0.54880988  0.95394276  0.74782884     2.38400
Eu39       Eu  0.42312421  0.07347039  0.75051449     2.39900
Eu40       Eu  0.42448219  0.94852979  0.75886199     2.39800
O41         O  0.42563437  0.01274366  0.79842853    -0.93600
O42         O  0.48430011  0.95093291  0.70947395    -0.92500
C43         C  0.40822667  0.92462599  0.65023943     1.01600
C44         C  0.40697844  0.94011108  0.87295505     1.00300
C45         C  0.55914917  0.92874907  0.63879610     0.99700
C46         C  0.40051885  0.08668636  0.64208586     1.01700
C47         C  0.40342714  0.08780087  0.85962366     1.00600
C48         C  0.57613918  0.93835352  0.85425721     0.99500
C49         C  0.49081469  0.85633789  0.76235882     0.99500
C50         C  0.32771484  0.00563418  0.74611105     1.02100
H51         H  0.49137428  0.92650750  0.81715672     0.29500
O52         O  0.48956172  0.95126969  0.79778020    -1.05700
H53         H  0.39889414  0.00760495  0.69334879     0.31600
O54         O  0.42462996  0.00932861  0.71069033    -1.08300
C55         C  0.64674351  0.20257635  0.48751917    -0.03200
O56         O  0.54437252  0.05193563  0.37168361    -0.80900
O57         O  0.54125835  0.05649267  0.12138284    -0.82400
O58         O  0.62824510  0.05324874  0.25494810    -0.79400
O59         O  0.52342179  0.14503311  0.23770327    -0.77800
O60         O  0.45008401  0.13933006  0.23767302    -0.79600
O61         O  0.63045912  0.97934942  0.26002251    -0.80600
O62         O  0.57892920  0.09434332  0.17194795    -0.81900
O63         O  0.57160412  0.09723735  0.31848513    -0.82200
Eu64       Eu  0.55168067  0.07126905  0.24555038     2.39200
O65         O  0.48883561  0.06715873  0.20362527    -0.89700
O66         O  0.55355215  0.00837088  0.28946332    -0.93300
C67         C  0.56758542  0.08462795  0.35866050     1.01400
C68         C  0.57054592  0.08439298  0.13230118     1.01200
C69         C  0.64824106  0.01747671  0.26203375     1.01200
C70         C  0.48550112  0.16184003  0.23400555     0.99000
H71         H  0.58052081  0.00993668  0.18478652     0.28800
O72         O  0.55465150  0.00861827  0.20290909    -1.02100
H73         H  0.48921850  0.09307051  0.30956499     0.28800
O74         O  0.49024049  0.06745551  0.29225342    -1.04600
O75         O  0.44460740  0.95046554  0.12728734    -0.81800
O76         O  0.44164730  0.95489418  0.37381446    -0.81400
O77         O  0.58578315  0.92348104  0.17801569    -0.79800
O78         O  0.39889643  0.09010522  0.18223761    -0.83100
O79         O  0.40394602  0.09026157  0.32129186    -0.81000
O80         O  0.58312382  0.91530100  0.31511106    -0.79600
O81         O  0.46154115  0.86418093  0.24172272    -0.81200
O82         O  0.35595101  0.96074645  0.25688434    -0.83100
O83         O  0.53554246  0.86805206  0.23969284    -0.79800
O84         O  0.35314374  0.03485938  0.25564988    -0.82500
O85         O  0.54551347  0.95747711  0.12647249    -0.78200
O86         O  0.54732748  0.95350616  0.36710705    -0.78300
O87         O  0.44259090  0.05504049  0.37371396    -0.77900
O88         O  0.43414731  0.05415265  0.12904538    -0.81400
O89         O  0.40961382  0.91172303  0.18187824    -0.80800
O90         O  0.41016729  0.91073670  0.32553666    -0.79200
Eu91       Eu  0.49112059  0.00555689  0.16048962     2.39800
Eu92       Eu  0.49304971  0.00414011  0.33647998     2.39600
Eu93       Eu  0.55743475  0.94587834  0.24777120     2.38400
Eu94       Eu  0.42763697  0.06320495  0.25017012     2.39900
Eu95       Eu  0.43289443  0.93806139  0.25217553     2.39800
O96         O  0.43054093  0.00059819  0.29437708    -0.93600
O97         O  0.49438487  0.94416701  0.20636533    -0.92500
C98         C  0.41790239  0.92079520  0.14161740     1.01600
C99         C  0.41581774  0.92357564  0.36470486     1.00300
C100        C  0.57576282  0.93113778  0.13841336     0.99700
C101        C  0.40606186  0.08240202  0.14212296     1.01700
C102        C  0.41418865  0.08318384  0.36120801     1.00600
C103        C  0.57455302  0.92426017  0.35468180     0.99500
C104        C  0.49926496  0.84656336  0.23684166     0.99500
C105        C  0.33540616  0.99700580  0.25858418     1.02100
H106        H  0.49669382  0.91504676  0.31237086     0.29500
O107        O  0.49570265  0.94091762  0.29442299    -1.05700
H108        H  0.40336789  0.99953984  0.19028005     0.31600
O109        O  0.42942323  0.00083995  0.20724014    -1.08300
C110        C  0.29798780  0.85159179  0.01651131    -0.03200
C111        C  0.67781960  0.85552045  0.99134352    -0.03200
C112        C  0.64462681  0.82306267  0.50359275    -0.03200
C113        C  0.29826513  0.16401627  0.00353596    -0.03200
C114        C  0.68044023  0.16691345  0.98895469    -0.03200
C115        C  0.34133749  0.19900176  0.49851778    -0.03200
C116        C  0.33318797  0.82171681  0.50977098    -0.03200
O117        O  0.85257290  0.76357392  0.53986266    -0.80900
O118        O  0.03128693  0.74129012  0.36822501    -0.82400
O119        O  0.90576191  0.82833422  0.41624297    -0.79400
O120        O  0.90350693  0.68195613  0.42517516    -0.77800
O121        O  0.94187013  0.63033664  0.46119183    -0.79600
O122        O  0.94180421  0.88053687  0.45211783    -0.80600
O123        O  0.95744771  0.74715802  0.36682348    -0.81900
O124        O  0.85495065  0.76981105  0.46679464    -0.82200
Eu125      Eu  0.93014202  0.75573941  0.44217551     2.39200
O126        O  0.99251078  0.71252090  0.44577977    -0.89700
O127        O  0.93094613  0.79813632  0.50406853    -0.93300
C128        C  0.83429304  0.77202255  0.50334273     1.01400
C129        C  0.99468990  0.73969625  0.34843066     1.01200
C130        C  0.91375928  0.86861122  0.42414616     1.01200
C131        C  0.91202570  0.64193658  0.43472009     0.99000
H132        H  0.99184809  0.81772170  0.41431573     0.28800
O133        O  0.99220265  0.80058659  0.44076987    -1.02100
H134        H  0.90346638  0.69322012  0.50490684     0.28800
O135        O  0.92972375  0.71053646  0.50469272    -1.04600
O136        O  0.12827006  0.77087760  0.46896573    -0.81800
O137        O  0.95257291  0.74658165  0.64144624    -0.81400
O138        O  0.04406713  0.87775309  0.44702178    -0.79800
O139        O  0.04293742  0.63228579  0.45615850    -0.83100
O140        O  0.93438169  0.63204610  0.55270629    -0.81000
O141        O  0.93865460  0.87740788  0.55549296    -0.79600
O142        O  0.07328039  0.83105857  0.59289439    -0.81200
O143        O  0.08355094  0.69083272  0.59319591    -0.83100
O144        O  0.04054455  0.88365119  0.55214377    -0.79800
O145        O  0.04622920  0.63577725  0.56140507    -0.82500
O146        O  0.07394941  0.82514595  0.40570185    -0.78200
O147        O  0.90286769  0.82200990  0.59175344    -0.78300
O148        O  0.89391895  0.68174822  0.58801779    -0.77900
O149        O  0.08310004  0.68610460  0.42188515    -0.81400
O150        O  0.12849625  0.76599534  0.54264383    -0.80800
O151        O  0.02687064  0.74923627  0.63969757    -0.79200
Eu152      Eu  0.05452937  0.75676109  0.44233744     2.39800
Eu153      Eu  0.92748590  0.75285742  0.56619511     2.39600
Eu154      Eu  0.99172190  0.84523292  0.50254499     2.38400
Eu155      Eu  0.99309149  0.66735265  0.50827486     2.39900
Eu156      Eu  0.05272326  0.75858366  0.56590359     2.39800
O157        O  0.99139902  0.71165517  0.56889153    -0.93600
O158        O  0.05410967  0.80210078  0.50283775    -0.92500
C159        C  0.14757945  0.77249941  0.50571788     1.01600
C160        C  0.99006822  0.74528696  0.65961201     1.00300
C161        C  0.06744611  0.86515739  0.41418374     0.99700
C162        C  0.07315881  0.64600426  0.42953593     1.01700
C163        C  0.90228107  0.64221526  0.57802210     1.00600
C164        C  0.91102668  0.86231004  0.58452245     0.99500
C165        C  0.06591470  0.87108509  0.58276656     0.99500
C166        C  0.07602246  0.65039665  0.58698922     1.02100
H167        H  0.98860494  0.81701852  0.59110188     0.29500
O168        O  0.98921523  0.79979014  0.56537067    -1.05700
H169        H  0.08151764  0.69650718  0.50620138     0.31600
O170        O  0.05517464  0.71321088  0.50565737    -1.08300
O171        O  0.85547993  0.23244803  0.53935766    -0.80900
O172        O  0.02941083  0.26676848  0.35908080    -0.82400
O173        O  0.90138299  0.32458130  0.41696530    -0.79400
O174        O  0.91468896  0.18494959  0.40480186    -0.77800
O175        O  0.95020246  0.13066301  0.44061277    -0.79600
O176        O  0.93779602  0.37900118  0.45067808    -0.80600
O177        O  0.95682471  0.25332133  0.36488196    -0.81900
O178        O  0.85809628  0.23667442  0.46538042    -0.82200
Eu179      Eu  0.93225047  0.25304616  0.43934321     2.39200
O180        O  0.99637382  0.21273457  0.43772229    -0.89700
O181        O  0.92946681  0.29466050  0.50161081    -0.93300
C182        C  0.83764482  0.23017487  0.50177532     1.01400
C183        C  0.99117088  0.26255199  0.34266136     1.01200
C184        C  0.90866342  0.36509895  0.42463502     1.01200
C185        C  0.92374267  0.14478111  0.41094343     0.99000
H186        H  0.99136016  0.31958720  0.41118697     0.28800
O187        O  0.99269001  0.30058576  0.43631974    -1.02100
H188        H  0.91012868  0.18440013  0.49916221     0.28800
O189        O  0.93386401  0.20502421  0.49948920    -1.04600
O190        O  0.13310659  0.25125424  0.46032016    -0.81800
O191        O  0.95458596  0.25537341  0.63826948    -0.81400
O192        O  0.04542019  0.38196993  0.45099572    -0.79800
O193        O  0.04939265  0.13782366  0.44263717    -0.83100
O194        O  0.94832741  0.12491817  0.55155257    -0.81000
O195        O  0.93484927  0.37140062  0.55080237    -0.79600
O196        O  0.07890616  0.33109451  0.58261601    -0.81200
O197        O  0.08647002  0.19218456  0.58536102    -0.83100
O198        O  0.03369645  0.38043947  0.55292374    -0.79800
O199        O  0.05660796  0.13749988  0.54663643    -0.82500
O200        O  0.08600190  0.33216062  0.41460985    -0.78200
O201        O  0.90044348  0.31412898  0.58556728    -0.78300
O202        O  0.91494948  0.17455062  0.59332158    -0.77900
O203        O  0.08208695  0.19010819  0.40097999    -0.81400
O204        O  0.13226286  0.25299601  0.53443875    -0.80800
O205        O  0.02783583  0.26672102  0.63598706    -0.79200
Eu206      Eu  0.05745041  0.25926018  0.43398520     2.39800
Eu207      Eu  0.93162099  0.24654146  0.56236575     2.39600
Eu208      Eu  0.98996919  0.34318119  0.49876823     2.38400
Eu209      Eu  0.99781474  0.16486214  0.49791152     2.39900
Eu210      Eu  0.05545168  0.25878929  0.55943351     2.39800
O211        O  0.99708285  0.20783640  0.56105590    -0.93600
O212        O  0.05524883  0.30316255  0.49647326    -0.92500
C213        C  0.15210064  0.24882483  0.49745770     1.01600
C214        C  0.99070311  0.26510585  0.65671784     1.00300
C215        C  0.07657395  0.37148225  0.42429722     0.99700
C216        C  0.07508461  0.14974001  0.41104712     1.01700
C217        C  0.92252714  0.13508439  0.58353238     1.00600
C218        C  0.90651790  0.35478725  0.57808430     0.99500
C219        C  0.06451008  0.36998180  0.57874528     0.99500
C220        C  0.08394928  0.15246102  0.57463302     1.02100
H221        H  0.98871430  0.31457763  0.58466544     0.29500
O222        O  0.99027721  0.29649204  0.55961906    -1.05700
H223        H  0.08181389  0.19815296  0.49652304     0.31600
O224        O  0.05582656  0.21526462  0.49704674    -1.08300
C225        C  0.79794172  0.49044000  0.65192316    -0.03200
C226        C  0.18111734  0.50400982  0.65429849    -0.03200
C227        C  0.83237478  0.00547199  0.31564665    -0.03200
C228        C  0.83349365  0.99464130  0.69660928    -0.03200
C229        C  0.81037326  0.50915880  0.34370668    -0.03200
C230        C  0.18562239  0.51890456  0.34353852    -0.03200
C231        C  0.14836475  0.00787619  0.30630586    -0.03200
C232        C  0.14158834  0.01173247  0.68869833    -0.03200
O233        O  0.73007749  0.64590149  0.96063562    -0.80900
O234        O  0.74949153  0.47059919  0.13664723    -0.82400
O235        O  0.67063281  0.59326251  0.08629150    -0.79400
O236        O  0.81418319  0.59932760  0.07879963    -0.77800
O237        O  0.86784086  0.56222736  0.04478385    -0.79600
O238        O  0.61837977  0.55631746  0.05026727    -0.80600
O239        O  0.75079705  0.54425895  0.13592622    -0.81900
O240        O  0.73112333  0.64694658  0.03401871    -0.82200
Eu241      Eu  0.74175123  0.57092091  0.05971466     2.39200
O242        O  0.78254839  0.50763334  0.05940276    -0.89700
O243        O  0.70011373  0.56865197  0.99679960    -0.93300
C244        C  0.72568802  0.66588255  0.99676943     1.01400
C245        C  0.75502251  0.50724164  0.15574513     1.01200
C246        C  0.63070822  0.58319659  0.07928296     1.01200
C247        C  0.85470113  0.59234193  0.06993769     0.99000
H248        H  0.67637615  0.50965698  0.08571082     0.28800
O249        O  0.69424483  0.50999067  0.05972090    -1.02100
H250        H  0.80549398  0.59763634  0.99790998     0.28800
O251        O  0.78811026  0.57151407  0.99831395    -1.04600
O252        O  0.72427732  0.37297584  0.03143813    -0.81800
O253        O  0.76351895  0.54897282  0.86021081    -0.81400
O254        O  0.61294135  0.45855818  0.04934640    -0.79800
O255        O  0.85822013  0.45906136  0.06004760    -0.83100
O256        O  0.86862519  0.56376002  0.94925799    -0.81000
O257        O  0.62064764  0.56355695  0.94567422    -0.79600
O258        O  0.67459667  0.42899310  0.90214127    -0.81200
O259        O  0.81421097  0.41840613  0.91767890    -0.83100
O260        O  0.61931733  0.45958538  0.94109103    -0.79800
O261        O  0.86809954  0.45411944  0.95318430    -0.82500
O262        O  0.66293785  0.42717673  0.09242578    -0.78200
O263        O  0.67695921  0.59826502  0.90931213    -0.78300
O264        O  0.81663434  0.60358295  0.91458641    -0.77900
O265        O  0.80131366  0.41867992  0.08825821    -0.81400
O266        O  0.73626576  0.37502743  0.95839907    -0.80800
O267        O  0.75820159  0.47587091  0.86185765    -0.79200
Eu268      Eu  0.73511604  0.44702825  0.06081091     2.39800
Eu269      Eu  0.74608294  0.57219092  0.93548242     2.39600
Eu270      Eu  0.65188736  0.50881909  0.99598688     2.38400
Eu271      Eu  0.83180110  0.50845094  0.99987446     2.39900
Eu272      Eu  0.74345681  0.44998796  0.93609576     2.39800
O273        O  0.78985255  0.51032614  0.93683162    -0.93600
O274        O  0.69519510  0.44702066  0.99650183    -0.92500
C275        C  0.72628332  0.35487928  0.99386539     1.01600
C276        C  0.76719977  0.51187536  0.84194025     1.00300
C277        C  0.62302923  0.43391583  0.08218068     0.99700
C278        C  0.84161246  0.42928468  0.08605979     1.01700
C279        C  0.85646568  0.59484322  0.92312213     1.00600
C280        C  0.63629080  0.59100969  0.91704357     0.99500
C281        C  0.63388039  0.43527150  0.91029492     0.99500
C282        C  0.85443659  0.42469216  0.92714672     1.02100
H283        H  0.68324495  0.51225556  0.90757132     0.29500
O284        O  0.69938593  0.51137677  0.93411698    -1.05700
H285        H  0.80033046  0.42141982  0.00147771     0.31600
O286        O  0.78375143  0.44774140  0.00034404    -1.08300
O287        O  0.25017376  0.64694754  0.96424179    -0.80900
O288        O  0.21820636  0.47138069  0.13666859    -0.82400
O289        O  0.16408998  0.59925122  0.08046147    -0.79400
O290        O  0.30515649  0.59191894  0.09197697    -0.77800
O291        O  0.35948582  0.55690227  0.05568047    -0.79600
O292        O  0.10954559  0.56104149  0.04872250    -0.80600
O293        O  0.23243099  0.54375183  0.13523766    -0.81900
O294        O  0.24978590  0.64291382  0.03799998    -0.82200
Eu295      Eu  0.23610342  0.56874323  0.06061048     2.39200
O296        O  0.27730344  0.50533683  0.06258386    -0.89700
O297        O  0.19419852  0.57107522  0.99810734    -0.93300
C298        C  0.25386061  0.66417986  0.00209659     1.01400
C299        C  0.22175137  0.50835009  0.15508830     1.01200
C300        C  0.12341303  0.59092571  0.07386100     1.01200
C301        C  0.34556149  0.58360101  0.08471135     0.99000
H302        H  0.16874261  0.50944733  0.08645404     0.28800
O303        O  0.18853568  0.50858335  0.06191673    -1.02100
H304        H  0.30342266  0.59334105  0.00006116     0.28800
O305        O  0.28356748  0.56899744  0.99986333    -1.04600
O306        O  0.23875025  0.36933839  0.03884141    -0.81800
O307        O  0.23249348  0.54410305  0.86156772    -0.81400
O308        O  0.10575999  0.45963849  0.04901458    -0.79800
O309        O  0.35372001  0.45289771  0.05728072    -0.83100
O310        O  0.36335360  0.55517179  0.94605732    -0.81000
O311        O  0.11643265  0.56619079  0.95154854    -0.79600
O312        O  0.16470874  0.42098481  0.91565158    -0.81200
O313        O  0.30713862  0.42081454  0.91532815    -0.83100
O314        O  0.11192541  0.46147632  0.94828898    -0.79800
O315        O  0.36004542  0.45382909  0.95344571    -0.82500
O316        O  0.15576780  0.41630663  0.08018932    -0.78200
O317        O  0.17155552  0.60541413  0.91982508    -0.78300
O318        O  0.31377388  0.59169151  0.90614890    -0.77900
O319        O  0.29741372  0.41848813  0.09401818    -0.81400
O320        O  0.24308437  0.37025353  0.96472477    -0.80800
O321        O  0.23204122  0.47003148  0.86314056    -0.79200
Eu322      Eu  0.22961068  0.44469404  0.06263866     2.39800
Eu323      Eu  0.24123486  0.57154950  0.93686061     2.39600
Eu324      Eu  0.14672505  0.51038584  0.99944952     2.38400
Eu325      Eu  0.32588274  0.50655813  0.00238493     2.39900
Eu326      Eu  0.23594437  0.44669517  0.93949868     2.39800
O327        O  0.28280584  0.50779865  0.93938570    -0.93600
O328        O  0.18770468  0.44592887  0.99972164    -0.92500
C329        C  0.24449627  0.35067861  0.00210321     1.01600
C330        C  0.22929185  0.50682967  0.84305169     1.00300
C331        C  0.11596542  0.42732633  0.07391332     0.99700
C332        C  0.33825097  0.42573715  0.08654804     1.01700
C333        C  0.35350597  0.58187347  0.91465062     1.00600
C334        C  0.13087648  0.59811799  0.92778042     0.99500
C335        C  0.12479937  0.43160171  0.92255983     0.99500
C336        C  0.34727289  0.42636391  0.92510544     1.02100
H337        H  0.17599128  0.51112731  0.91333336     0.29500
O338        O  0.19414161  0.51042579  0.93852962    -1.05700
H339        H  0.29525584  0.42175010  0.00331989     0.31600
O340        O  0.27742011  0.44713595  0.00242361    -1.08300
C341        C  0.99555643  0.70561352  0.84638725    -0.03200
C342        C  0.99286509  0.31443292  0.84768073    -0.03200
C343        C  0.50036885  0.66467587  0.80331552    -0.03200
C344        C  0.48970992  0.66003366  0.18913430    -0.03200
C345        C  0.97320639  0.31422630  0.15687362    -0.03200
C346        C  0.98792493  0.69734936  0.15889148    -0.03200
C347        C  0.48945475  0.35906437  0.81099007    -0.03200
C348        C  0.47736059  0.35168737  0.19391376    -0.03200
O349        O  0.57630243  0.40998344  0.44415533    -0.80900
O350        O  0.45495042  0.49663447  0.63628242    -0.82400
O351        O  0.59020311  0.44648729  0.58073718    -0.79400
O352        O  0.46904573  0.37616557  0.53087777    -0.77800
O353        O  0.40750200  0.39994077  0.50042673    -0.79600
O354        O  0.61634265  0.51565190  0.57179525    -0.80600
O355        O  0.49007334  0.43431354  0.61794908    -0.81900
O356        O  0.56003275  0.38603059  0.51311088    -0.82200
Eu357      Eu  0.51723762  0.44066366  0.54501999     2.39200
O358        O  0.44893238  0.47252622  0.54255808    -0.89700
O359        O  0.56473648  0.48244444  0.50144101    -0.93300
C360        C  0.57863399  0.38175207  0.47618374     1.01400
C361        C  0.46969989  0.45799851  0.64501907     1.01200
C362        C  0.61934668  0.47671913  0.58531494     1.01200
C363        C  0.43093941  0.36970608  0.51453427     0.99000
H364        H  0.52911306  0.51039815  0.60229122     0.28800
O365        O  0.51854545  0.51119169  0.57285478    -1.02100
H366        H  0.49254359  0.41088195  0.46139806     0.28800
O367        O  0.49320128  0.43961664  0.47297966    -1.04600
O368        O  0.42024068  0.62056084  0.54941188    -0.81800
O369        O  0.52932878  0.53572342  0.36433134    -0.81400
O370        O  0.55400412  0.58634471  0.60314881    -0.79800
O371        O  0.36256499  0.47239727  0.52817441    -0.83100
O372        O  0.43511443  0.43478099  0.39697901    -0.81000
O373        O  0.63306335  0.54868175  0.47828148    -0.79600
O374        O  0.51867332  0.64484306  0.47102459    -0.81200
O375        O  0.39356223  0.56753211  0.41942568    -0.83100
O376        O  0.57345655  0.62656374  0.51667534    -0.79800
O377        O  0.36804394  0.49876048  0.43094378    -0.82500
O378        O  0.48491081  0.60605082  0.59681059    -0.78200
O379        O  0.61517662  0.50137997  0.42636256    -0.78300
O380        O  0.50680308  0.44034446  0.37594097    -0.77900
O381        O  0.37531750  0.52455078  0.57757932    -0.81400
O382        O  0.42013322  0.63169887  0.47666847    -0.80800
O383        O  0.50566463  0.59987944  0.38955653    -0.79200
Eu384      Eu  0.44931390  0.54403645  0.56802573     2.39800
Eu385      Eu  0.54007050  0.48306313  0.42970924     2.39600
Eu386      Eu  0.56625995  0.55254699  0.52873615     2.38400
Eu387      Eu  0.42363431  0.46900513  0.47196239     2.39900
Eu388      Eu  0.46957958  0.58042847  0.45408949     2.39800
O389        O  0.46922676  0.51101624  0.42591862    -0.93600
O390        O  0.49695937  0.58252243  0.52362823    -0.92500
C391        C  0.41293356  0.64447456  0.51469647     1.01600
C392        C  0.51563228  0.57548241  0.35881556     1.00300
C393        C  0.51896223  0.60385811  0.61887032     0.99700
C394        C  0.35191864  0.49424999  0.56236447     1.01700
C395        C  0.46737677  0.42896563  0.36947431     1.00600
C396        C  0.64224382  0.52688027  0.44354707     0.99500
C397        C  0.55337627  0.65354526  0.49309951     0.99500
C398        C  0.36381562  0.53706602  0.41627615     1.02100
H399        H  0.56067118  0.57129393  0.43957187     0.29500
O400        O  0.54105235  0.55322723  0.45687981    -1.05700
H401        H  0.39325270  0.55122716  0.49814300     0.31600
O402        O  0.42226027  0.53969961  0.49817068    -1.08300
O403        O  0.09336275  0.92846236  0.07094389    -0.80900
O404        O  0.01285508  0.04470537  0.86760729    -0.82400
O405        O  0.05185478  0.90833339  0.92100253    -0.79400
O406        O  0.12745207  0.02853505  0.96423552    -0.77800
O407        O  0.11030494  0.08702813  0.00546502    -0.79600
O408        O  0.98121811  0.88632136  0.93114743    -0.80600
O409        O  0.07278358  0.00915818  0.89026864    -0.81900
O410        O  0.11688906  0.93901469  0.00065961    -0.82200
Eu411      Eu  0.06266647  0.97907959  0.96173321     2.39200
O412        O  0.03515161  0.04950427  0.96257986    -0.89700
O413        O  0.01759083  0.93487696  0.00583499    -0.93300
C414        C  0.12218654  0.92532459  0.03968787     1.01400
C415        C  0.05100568  0.02808709  0.86078314     1.01200
C416        C  0.01927687  0.88173167  0.91481317     1.01200
C417        C  0.13636796  0.06539946  0.98159041     0.99000
H418        H  0.99329960  0.97108174  0.90428852     0.28800
O419        O  0.99227279  0.98184187  0.93340355    -1.02100
H420        H  0.09213613  0.00750869  0.04373134     0.28800
O421        O  0.06302929  0.00652452  0.03256481    -1.04600
O422        O  0.89320360  0.09610807  0.94645427    -0.81800
O423        O  0.96406580  0.95944088  0.14092408    -0.81400
O424        O  0.91351514  0.94942900  0.90127187    -0.79800
O425        O  0.02867600  0.14190246  0.98229579    -0.83100
O426        O  0.06959833  0.07383549  0.10633927    -0.81000
O427        O  0.95117897  0.87203852  0.02525837    -0.79600
O428        O  0.85429914  0.98571194  0.04079895    -0.81200
O429        O  0.92953230  0.10877771  0.08233022    -0.83100
O430        O  0.87196686  0.93079324  0.99540102    -0.79800
O431        O  0.99991485  0.13169971  0.07182658    -0.82500
O432        O  0.92369768  0.01984193  0.87898211    -0.78200
O433        O  0.99557664  0.88750224  0.08209788    -0.78300
O434        O  0.05830937  0.00384821  0.12904378    -0.77900
O435        O  0.01293036  0.11243024  0.91855346    -0.81400
O436        O  0.86793164  0.07416739  0.01279975    -0.80800
O437        O  0.91077057  0.00734435  0.12437310    -0.79200
Eu438      Eu  0.96478737  0.05285711  0.93405458     2.39800
Eu439      Eu  0.01824813  0.96192744  0.07718780     2.39600
Eu440      Eu  0.94702638  0.93774280  0.97631684     2.38400
Eu441      Eu  0.03660868  0.07757950  0.03225016     2.39900
Eu442      Eu  0.92097268  0.03364728  0.05006037     2.39800
O443        O  0.99174597  0.03316215  0.07764517    -0.93600
O444        O  0.92023603  0.00816890  0.97844867    -0.92500
C445        C  0.86401207  0.09650969  0.97799781     1.01600
C446        C  0.92759522  0.97891133  0.14982883     1.00300
C447        C  0.91015155  0.98131137  0.87304743     0.99700
C448        C  0.01955038  0.14514084  0.94155353     1.01700
C449        C  0.07187856  0.04276913  0.13506604     1.00600
C450        C  0.97067594  0.86212688  0.06111824     0.99500
C451        C  0.84505010  0.95088360  0.01951999     0.99500
C452        C  0.96078465  0.13753023  0.08475551     1.02100
H453        H  0.92859309  0.94442751  0.06559917     0.29500
O454        O  0.94762576  0.96293564  0.04812267    -1.05700
H455        H  0.95407105  0.10810069  0.00394152     0.31600
O456        O  0.96513404  0.07904679  0.00501976    -1.08300
C457        C  0.47881073  0.34705198  0.28207204    -0.02600
C458        C  0.48020201  0.37216001  0.24174838     0.07100
C459        C  0.48249914  0.41797000  0.24801088    -0.02700
C460        C  0.47247068  0.43576940  0.28899927    -0.02700
C461        C  0.46161266  0.40985944  0.32564056     0.07200
C462        C  0.46374852  0.36524403  0.32120547    -0.02900
Br463      Br  0.44960641  0.32912748  0.37089047    -0.01400
Br464      Br  0.51031019  0.29377015  0.29221927    -0.01500
Br465      Br  0.47246028  0.49695056  0.29572062    -0.01500
Br466      Br  0.50148759  0.45874867  0.20299934    -0.01500
C467        C  0.47222512  0.36694581  0.72485141    -0.02600
C468        C  0.47990888  0.38579238  0.76670633     0.07100
C469        C  0.47501603  0.43248771  0.76594934    -0.02700
C470        C  0.47830925  0.45593300  0.72650817    -0.02700
C471        C  0.46459616  0.43688750  0.68860276     0.07200
C472        C  0.45563238  0.39252182  0.69071251    -0.02900
Br473      Br  0.41995744  0.36743406  0.64671461    -0.01400
Br474      Br  0.48813278  0.31094425  0.70497932    -0.01500
Br475      Br  0.50028142  0.51365885  0.72575536    -0.01500
Br476      Br  0.43711958  0.46411144  0.80378182    -0.01500
C477        C  0.95457495  0.81768919  0.12633295    -0.02600
C478        C  0.96452473  0.81914707  0.08220827     0.07100
C479        C  0.97717246  0.78142530  0.06227603    -0.02700
C480        C  0.97769388  0.74199805  0.08599259    -0.02700
C481        C  0.97969152  0.74180705  0.13303028     0.07200
C482        C  0.96735394  0.78240044  0.15272435    -0.02900
Br483      Br  0.95762935  0.79376246  0.21368804    -0.01400
Br484      Br  0.91925683  0.86390631  0.14868111    -0.01500
Br485      Br  0.97950237  0.69091501  0.05058673    -0.01500
Br486      Br  0.00265173  0.78591263  0.00534264    -0.01500
C487        C  0.98767613  0.25380068  0.09730007    -0.02600
C488        C  0.96673624  0.26719804  0.13659556     0.07100
C489        C  0.93925881  0.23352028  0.15761156    -0.02700
C490        C  0.93825464  0.19054795  0.14229090    -0.02700
C491        C  0.95381839  0.18209344  0.10084913     0.07200
C492        C  0.97306406  0.21643226  0.07704844    -0.02900
Br493      Br  0.97376832  0.21528665  0.01526488    -0.01400
Br494      Br  0.04285905  0.27423989  0.07317633    -0.01500
Br495      Br  0.91366777  0.14347975  0.17672080    -0.01500
Br496      Br  0.89475150  0.24301908  0.20100897    -0.01500
C497        C  0.53241759  0.64240004  0.25866778    -0.02600
C498        C  0.49179664  0.64448618  0.23849576     0.07100
C499        C  0.45739752  0.64100548  0.27053458    -0.02700
C500        C  0.46610449  0.61937079  0.31050368    -0.02700
C501        C  0.50626503  0.59648201  0.31608914     0.07200
C502        C  0.53953552  0.60670183  0.28594700    -0.02900
Br503      Br  0.59821211  0.58954888  0.29465764    -0.01400
Br504      Br  0.54432283  0.69451799  0.29115365    -0.01500
Br505      Br  0.42676966  0.63074921  0.35812530    -0.01500
Br506      Br  0.39814100  0.65953796  0.26372375    -0.01500
C507        C  0.47285619  0.62026816  0.73385007    -0.02600
C508        C  0.50412748  0.64840943  0.75395965     0.07100
C509        C  0.53862958  0.66480992  0.72453158    -0.02700
C510        C  0.54515955  0.64794421  0.68225226    -0.02700
C511        C  0.51432009  0.62056829  0.66434029     0.07200
C512        C  0.47574320  0.61183296  0.68891181    -0.02900
Br513      Br  0.42371214  0.59069723  0.66106156    -0.01400
Br514      Br  0.42230729  0.59272636  0.76212773    -0.01500
Br515      Br  0.59662560  0.66256188  0.64769530    -0.01500
Br516      Br  0.58499613  0.70307340  0.74132602    -0.01500
C517        C  0.97845456  0.23043995  0.86130669    -0.02600
C518        C  0.00384202  0.26832015  0.87055976     0.07100
C519        C  0.04137251  0.25967265  0.89844431    -0.02700
C520        C  0.04284579  0.22217191  0.92522787    -0.02700
C521        C  0.01476948  0.18747901  0.91815432     0.07200
C522        C  0.98356674  0.19140735  0.88505731    -0.02900
Br523      Br  0.94305574  0.14432075  0.87415958    -0.01400
Br524      Br  0.93192164  0.22926644  0.81951037    -0.01500
Br525      Br  0.08556267  0.21747876  0.97084049    -0.01500
Br526      Br  0.09810833  0.28947542  0.89792088    -0.01500
C527        C  0.04874273  0.80768933  0.90339099    -0.02600
C528        C  0.02283053  0.84140291  0.88889449     0.07100
C529        C  0.98894269  0.83137847  0.86081902    -0.02700
C530        C  0.97799649  0.78817040  0.85124964    -0.02700
C531        C  0.00336088  0.75226514  0.86683500     0.07200
C532        C  0.03744642  0.76376214  0.89628050    -0.02900
Br533      Br  0.06628611  0.72427190  0.93407066    -0.01400
Br534      Br  0.10300405  0.82325725  0.92833923    -0.01500
Br535      Br  0.92628137  0.78064349  0.81753832    -0.01500
Br536      Br  0.95964010  0.87847826  0.83237615    -0.01500
C537        C  0.05869036  0.37330046  0.83761047    -0.02600
C538        C  0.02825818  0.34814473  0.86412961     0.07100
C539        C  0.02976739  0.35604055  0.91037899    -0.02700
C540        C  0.06357864  0.38020914  0.92818952    -0.02700
C541        C  0.09088671  0.40540228  0.90188928     0.07200
C542        C  0.08788036  0.40285996  0.85694598    -0.02900
Br543      Br  0.12520884  0.44080533  0.82297378    -0.01400
Br544      Br  0.06294847  0.37173441  0.77534096    -0.01500
Br545      Br  0.08179797  0.36826811  0.98685652    -0.01500
Br546      Br  0.99305367  0.32805042  0.95386771    -0.01500
C547        C  0.08799065  0.37571833  0.13457253    -0.02600
C548        C  0.08011031  0.40027261  0.09628254     0.07100
C549        C  0.03747762  0.39779943  0.07984077    -0.02700
C550        C  0.00841216  0.36451660  0.09440284    -0.02700
C551        C  0.01351501  0.34229028  0.13576014     0.07200
C552        C  0.05332264  0.35401153  0.15722719    -0.02900
Br553      Br  0.06117510  0.35457266  0.21904333    -0.01400
Br554      Br  0.14515289  0.37471676  0.16062051    -0.01500
Br555      Br  0.96246892  0.35099838  0.05456551    -0.01500
Br556      Br  0.01588018  0.44062908  0.03892443    -0.01500
C557        C  0.08630191  0.66186152  0.08317700    -0.02600
C558        C  0.09088210  0.61862631  0.09641077     0.07100
C559        C  0.07069642  0.60495239  0.13552562    -0.02700
C560        C  0.04688184  0.63451050  0.16091131    -0.02700
C561        C  0.03261969  0.67480158  0.14266850     0.08000
C562        C  0.06028800  0.69048075  0.10745133    -0.02900
Br563      Br  0.07357810  0.75069759  0.09635373    -0.01400
Br564      Br  0.11431489  0.68125953  0.02969332    -0.01500
Br565      Br  0.04797425  0.62381290  0.22299461    -0.01500
Br566      Br  0.07523027  0.54532616  0.15449132    -0.01500
C567        C  0.10840826  0.65244363  0.86931820    -0.02600
C568        C  0.09807234  0.62678957  0.90674382     0.07100
C569        C  0.05406328  0.62405565  0.92018021    -0.02700
C570        C  0.02147858  0.63890873  0.89304844    -0.02700
C571        C  0.03067122  0.67019525  0.85964145     0.07200
C572        C  0.07505754  0.67063828  0.84407496    -0.02900
Br573      Br  0.09133052  0.67553621  0.78321473    -0.01400
Br574      Br  0.16789201  0.66792606  0.85311680    -0.01500
Br575      Br  0.98505947  0.59008419  0.88180502    -0.01500
Br576      Br  0.03511537  0.60262084  0.97670938    -0.01500
C577        C  0.37164308  0.37866155  0.86241270    -0.02600
C578        C  0.38117865  0.40106283  0.90077279     0.07100
C579        C  0.42491639  0.40415339  0.91241607    -0.02700
C580        C  0.45778378  0.39844916  0.88141749    -0.02700
C581        C  0.45062242  0.37341208  0.84295740     0.07200
C582        C  0.40532556  0.36707853  0.83291141    -0.02900
Br583      Br  0.38559768  0.34786342  0.77709420    -0.01400
Br584      Br  0.31305726  0.35794004  0.85183740    -0.01500
Br585      Br  0.50009797  0.44542443  0.88562015    -0.01500
Br586      Br  0.44218964  0.41631656  0.97102595    -0.01500
C587        C  0.43266885  0.58638300  0.88510707    -0.02600
C588        C  0.38996740  0.60283687  0.88641945     0.07100
C589        C  0.38322498  0.63958590  0.85903114    -0.02700
C590        C  0.41911114  0.66437215  0.84237642    -0.02700
C591        C  0.45963339  0.64360161  0.83158246     0.07200
C592        C  0.46281565  0.60113234  0.85249460    -0.02900
Br593      Br  0.50257864  0.55705462  0.83465611    -0.01400
Br594      Br  0.45176695  0.54265011  0.92606932    -0.01500
Br595      Br  0.41058720  0.72570766  0.84966535    -0.01500
Br596      Br  0.32675837  0.65468760  0.83727311    -0.01500
C597        C  0.41787263  0.60889257  0.17969715    -0.02600
C598        C  0.44639775  0.64380843  0.16450411     0.07100
C599        C  0.43730077  0.65877809  0.12078341    -0.02700
C600        C  0.40680009  0.63728440  0.09430729    -0.02700
C601        C  0.37806957  0.60625291  0.11213867     0.07200
C602        C  0.38052598  0.59681839  0.15651372    -0.02900
Br603      Br  0.33421316  0.56378411  0.18505796    -0.01400
Br604      Br  0.43282887  0.56448170  0.22144326    -0.01500
Br605      Br  0.40233107  0.65150183  0.03315533    -0.01500
Br606      Br  0.46480531  0.70798976  0.09315355    -0.01500
C607        C  0.39809603  0.42769867  0.14032281    -0.02600
C608        C  0.36955749  0.40320746  0.11562823     0.07100
C609        C  0.36914501  0.35795484  0.12327264    -0.02700
C610        C  0.40427200  0.33842909  0.14563971    -0.02700
C611        C  0.43226241  0.36501843  0.17216375     0.07200
C612        C  0.41780360  0.40802195  0.17583601    -0.02900
Br613      Br  0.38511043  0.42116287  0.22768397    -0.01400
Br614      Br  0.39996026  0.48906868  0.13578119    -0.01500
Br615      Br  0.41490239  0.27915085  0.12906744    -0.01500
Br616      Br  0.32091868  0.32280948  0.10541684    -0.01500
C617        C  0.51084710  0.38858615  0.12071764    -0.02600
C618        C  0.51697674  0.37076160  0.16367596     0.07100
C619        C  0.56160480  0.37244113  0.17708487    -0.02700
C620        C  0.59570135  0.38618799  0.14772300    -0.02700
C621        C  0.58683558  0.41229654  0.11033708     0.07200
C622        C  0.54231656  0.41595979  0.10008131    -0.02900
Br623      Br  0.52148001  0.45569201  0.05618433    -0.01400
Br624      Br  0.47380591  0.36234072  0.07884721    -0.01500
Br625      Br  0.65267521  0.36186337  0.15672353    -0.01500
Br626      Br  0.57982404  0.35421019  0.23374568    -0.01500
C627        C  0.57668975  0.64175174  0.17332726    -0.02600
C628        C  0.53046604  0.63853583  0.16362546     0.07100
C629        C  0.52224782  0.61104122  0.12781426    -0.02700
C630        C  0.55338944  0.60493767  0.09552819    -0.02700
C631        C  0.59705819  0.60288378  0.10776142     0.07200
C632        C  0.60728214  0.61738431  0.14962572    -0.02900
Br633      Br  0.66087725  0.60088949  0.17772584    -0.01400
Br634      Br  0.60634012  0.68357618  0.20888546    -0.01500
Br635      Br  0.53206057  0.58643036  0.04026679    -0.01500
Br636      Br  0.49290521  0.55676705  0.13617836    -0.01500
C637        C  0.57314419  0.63995407  0.90474119    -0.02600
C638        C  0.60583593  0.61384772  0.88818518     0.07100
C639        C  0.60967853  0.60832350  0.84347260    -0.02700
C640        C  0.57655905  0.62209036  0.81551470    -0.02700
C641        C  0.54127075  0.64937256  0.83107335     0.07200
C642        C  0.54108795  0.65728934  0.87735481    -0.02900
Br643      Br  0.49973183  0.69496416  0.90566230    -0.01400
Br644      Br  0.57692805  0.65704829  0.96444722    -0.01500
Br645      Br  0.57868277  0.58835679  0.76280476    -0.01500
Br646      Br  0.66003431  0.57782946  0.82064015    -0.01500
C647        C  0.57568038  0.37847833  0.90111769    -0.02600
C648        C  0.60179381  0.41185040  0.88282994     0.07100
C649        C  0.59905099  0.42040349  0.83787212    -0.02700
C650        C  0.56628688  0.40060833  0.81272458    -0.02700
C651        C  0.53400552  0.37259982  0.83283055     0.07200
C652        C  0.54399043  0.35727278  0.87601897    -0.02900
Br653      Br  0.51378869  0.30896740  0.90367605    -0.01400
Br654      Br  0.58110097  0.36422119  0.96213274    -0.01500
Br655      Br  0.57513198  0.40313354  0.75051469    -0.01500
Br656      Br  0.64037358  0.45988689  0.81061639    -0.01500
C657        C  0.93579714  0.39051808  0.15477279    -0.02600
C658        C  0.93288611  0.34418967  0.14736652     0.07100
C659        C  0.89280516  0.33007760  0.12809966    -0.02700
C660        C  0.85963661  0.35944042  0.12203309    -0.02700
C661        C  0.87013960  0.40280109  0.11410267     0.07200
C662        C  0.90613097  0.41930909  0.13522469    -0.02900
Br663      Br  0.90774405  0.48024385  0.14612101    -0.01400
Br664      Br  0.97686581  0.41647022  0.19336953    -0.01500
Br665      Br  0.80433996  0.34453454  0.14877437    -0.01500
Br666      Br  0.88011972  0.27917265  0.09520787    -0.01500
C667        C  0.94439413  0.38428555  0.85261213    -0.02600
C668        C  0.94919503  0.33879283  0.86437106     0.07100
C669        C  0.91578873  0.32245439  0.89484583    -0.02700
C670        C  0.88429751  0.35060228  0.91324995    -0.02700
C671        C  0.88672410  0.39553218  0.90624520     0.07200
C672        C  0.91670066  0.41209651  0.87577953    -0.02900
Br673      Br  0.91701232  0.47376128  0.86324443    -0.01400
Br674      Br  0.96954108  0.41057420  0.80071291    -0.01500
Br675      Br  0.83776618  0.32824760  0.95103457    -0.01500
Br676      Br  0.91084875  0.26460170  0.91931772    -0.01500
C677        C  0.91968338  0.66178984  0.83779166    -0.02600
C678        C  0.94739971  0.68913463  0.86251691     0.07100
C679        C  0.93355645  0.69171798  0.90707396    -0.02700
C680        C  0.90611491  0.65955118  0.92691933    -0.02700
C681        C  0.88948205  0.62528073  0.90297801     0.07200
C682        C  0.89580569  0.62737484  0.85786985    -0.02900
Br683      Br  0.87617468  0.58049912  0.82320445    -0.01400
Br684      Br  0.89003548  0.68377313  0.78755556    -0.01500
Br685      Br  0.88694792  0.66461351  0.98622673    -0.01500
Br686      Br  0.93274149  0.74612446  0.93578805    -0.01500
C687        C  0.87700626  0.66182260  0.10610492    -0.02600
C688        C  0.88796016  0.62033942  0.09123335     0.07100
C689        C  0.92913266  0.60415729  0.10186802    -0.02700
C690        C  0.95313896  0.62331531  0.13454011    -0.02700
C691        C  0.94742859  0.66753634  0.14514981     0.07200
C692        C  0.90562945  0.68498830  0.13290486    -0.02900
Br693      Br  0.88051418  0.73608632  0.15823095    -0.01400
Br694      Br  0.82508418  0.69040534  0.08528104    -0.01500
Br695      Br  0.96302007  0.58112987  0.17966900    -0.01500
Br696      Br  0.95504959  0.55505064  0.07430918    -0.01500
C697        C  0.07612802  0.04377921  0.73847217    -0.02600
C698        C  0.11713645  0.02139230  0.73368354     0.07100
C699        C  0.13543806  0.00820247  0.77395061    -0.02700
C700        C  0.10848813  0.00018064  0.80953229    -0.02700
C701        C  0.07243362  0.02747012  0.81661119     0.07200
C702        C  0.05885466  0.05247544  0.78057205    -0.02900
Br703      Br  0.01767790  0.09854038  0.78791385    -0.01400
Br704      Br  0.03940224  0.06096992  0.69136366    -0.01500
Br705      Br  0.12664464  0.95288547  0.84684972    -0.01500
Br706      Br  0.18872973  0.03193939  0.79570947    -0.01500
C707        C  0.06586095  0.02585605  0.21233484    -0.02600
C708        C  0.08738167  0.04976996  0.18025920     0.07100
C709        C  0.12642935  0.06944719  0.19190496    -0.02700
C710        C  0.14338135  0.06165081  0.23456236    -0.02700
C711        C  0.12600660  0.02615676  0.26253369     0.07200
C712        C  0.08936795  0.00476794  0.24409571    -0.02900
Br713      Br  0.07872337  0.94291279  0.24367352    -0.01400
Br714      Br  0.00464848  0.02057838  0.21051537    -0.01500
Br715      Br  0.19521583  0.09469533  0.24492539    -0.01500
Br716      Br  0.15601316  0.10565662  0.14900132    -0.01500
C717        C  0.18809816  0.54680383  0.21800857    -0.02600
C718        C  0.21155140  0.51122460  0.20201200     0.07100
C719        C  0.22698937  0.47979832  0.23100373    -0.02700
C720        C  0.21852071  0.48302237  0.27574080    -0.02700
C721        C  0.19177758  0.51699176  0.29297727     0.07200
C722        C  0.17857730  0.55047425  0.26267420    -0.02900
Br723      Br  0.16052796  0.60871746  0.27844832    -0.01400
Br724      Br  0.17224402  0.59430448  0.17940937    -0.01500
Br725      Br  0.24245034  0.43732639  0.31179048    -0.01500
Br726      Br  0.26158555  0.43227593  0.20963291    -0.01500
C727        C  0.24785036  0.51077580  0.40264730    -0.02600
C728        C  0.23544431  0.52392213  0.36026078     0.07100
C729        C  0.27185670  0.54377166  0.33515447    -0.02700
C730        C  0.31437618  0.54558056  0.35225652    -0.02700
C731        C  0.32008849  0.54363636  0.39697756     0.07200
C732        C  0.28347072  0.53102554  0.42217886    -0.02900
Br733      Br  0.28433466  0.53466843  0.48385126    -0.01400
Br734      Br  0.24281175  0.45108585  0.42118566    -0.01500
Br735      Br  0.36446384  0.54767497  0.31420577    -0.01500
Br736      Br  0.26939800  0.57875988  0.28280372    -0.01500
C737        C  0.77039812  0.47358889  0.27674729    -0.02600
C738        C  0.80015072  0.50580097  0.29273469     0.07100
C739        C  0.81891408  0.53381443  0.25958593    -0.02700
C740        C  0.80179632  0.53630386  0.21706703    -0.02700
C741        C  0.76964767  0.50690783  0.20294031     0.07200
C742        C  0.75459632  0.47533801  0.23346530    -0.02900
Br743      Br  0.70632748  0.43862454  0.21852298    -0.01400
Br744      Br  0.74909545  0.42594389  0.31253324    -0.01500
Br745      Br  0.82419019  0.58106631  0.17819222    -0.01500
Br746      Br  0.87477106  0.56159646  0.26534448    -0.01500
C747        C  0.72525489  0.54096781  0.43786925    -0.02600
C748        C  0.68526744  0.52989575  0.41886583     0.07100
C749        C  0.68682427  0.51915265  0.37413890    -0.02700
C750        C  0.72501826  0.52523597  0.34966159    -0.02700
C751        C  0.76651094  0.52206052  0.36982180     0.07200
C752        C  0.76533254  0.53262229  0.41552374    -0.02900
Br753      Br  0.81589560  0.53130127  0.45176328    -0.01400
Br754      Br  0.72617224  0.56496223  0.49521417    -0.01500
Br755      Br  0.71347925  0.55196909  0.29355236    -0.01500
Br756      Br  0.63875389  0.49478686  0.34188609    -0.01500
C757        C  0.82636490  0.97639347  0.78388269    -0.02600
C758        C  0.85168944  0.99120594  0.74546061     0.07100
C759        C  0.89491465  0.00388244  0.75539679    -0.02700
C760        C  0.91480468  0.98668039  0.79243945    -0.02700
C761        C  0.89005052  0.97597678  0.82978326     0.07200
C762        C  0.84506093  0.97614310  0.82558597    -0.02900
Br763      Br  0.80966015  0.98272585  0.87698044    -0.01400
Br764      Br  0.76972703  0.94838315  0.78544608    -0.01500
Br765      Br  0.97640312  0.98503510  0.79346724    -0.01500
Br766      Br  0.91736199  0.06088593  0.74040139    -0.01500
C767        C  0.85611480  0.97629846  0.19226709    -0.02600
C768        C  0.90153992  0.97019464  0.19153449     0.07100
C769        C  0.91978007  0.95813780  0.23139220    -0.02700
C770        C  0.89901983  0.97002814  0.27090334    -0.02700
C771        C  0.85486723  0.98541713  0.27223045     0.07200
C772        C  0.83258595  0.97741606  0.23203729    -0.02900
Br773      Br  0.77353775  0.95519084  0.22711862    -0.01400
Br774      Br  0.82414327  0.97613422  0.13856912    -0.01500
Br775      Br  0.93574051  0.96832424  0.32016142    -0.01500
Br776      Br  0.96860221  0.91961510  0.23283359    -0.01500
C777        C  0.17873606  0.53630819  0.73561485    -0.02600
C778        C  0.19298565  0.50355764  0.70541555     0.07100
C779        C  0.22544268  0.47450015  0.72352606    -0.02700
C780        C  0.24042613  0.47923220  0.76663139    -0.02700
C781        C  0.21855399  0.50593182  0.79592937     0.07200
C782        C  0.18439661  0.53074558  0.78030460    -0.02900
Br783      Br  0.14407130  0.55762460  0.81979825    -0.01400
Br784      Br  0.16845039  0.59727869  0.72325589    -0.01500
Br785      Br  0.29292234  0.45121090  0.78507234    -0.01500
Br786      Br  0.25096307  0.42623741  0.69269195    -0.01500
C787        C  0.23384058  0.46507257  0.59467482    -0.02600
C788        C  0.22596362  0.49686365  0.62844781     0.07100
C789        C  0.26488506  0.51769980  0.64350906    -0.02700
C790        C  0.30558099  0.50582885  0.62768582    -0.02700
C791        C  0.31009736  0.48678750  0.58705339     0.07200
C792        C  0.27442358  0.46360376  0.57188844    -0.02900
Br793      Br  0.28354307  0.42358632  0.52495428    -0.01400
Br794      Br  0.19795481  0.41574620  0.58185791    -0.01500
Br795      Br  0.35324220  0.50471315  0.66759104    -0.01500
Br796      Br  0.26755662  0.56532999  0.68340572    -0.01500
C797        C  0.80499614  0.53826211  0.72377903    -0.02600
C798        C  0.80018566  0.49685342  0.70344418     0.07100
C799        C  0.79578407  0.46112266  0.73423630    -0.02700
C800        C  0.79530781  0.46812784  0.77917692    -0.02700
C801        C  0.78357773  0.50876984  0.79553357     0.07200
C802        C  0.78889283  0.54451447  0.76654533    -0.02900
Br803      Br  0.77287717  0.60242772  0.78211072    -0.01400
Br804      Br  0.84802227  0.58121406  0.70666052    -0.01500
Br805      Br  0.81573824  0.42200867  0.81682522    -0.01500
Br806      Br  0.78658089  0.40110797  0.72132030    -0.01500
C807        C  0.73919572  0.47995427  0.59146378    -0.02600
C808        C  0.74822303  0.48608824  0.63658046     0.07100
C809        C  0.70942262  0.48729169  0.66448211    -0.02700
C810        C  0.66730212  0.47893889  0.64814200    -0.02700
C811        C  0.66157317  0.46855966  0.60496035     0.07200
C812        C  0.69738386  0.46936881  0.57676424    -0.02900
Br813      Br  0.68755588  0.45746349  0.51608259    -0.01400
Br814      Br  0.78212519  0.48185210  0.54683093    -0.01500
Br815      Br  0.61470282  0.48771743  0.68260273    -0.01500
Br816      Br  0.70588740  0.50754918  0.72283239    -0.01500
C817        C  0.94774837  0.29525926  0.28236879    -0.02600
C818        C  0.98460364  0.27215269  0.29573380     0.07100
C819        C  0.01432803  0.25865739  0.26425830    -0.02700
C820        C  0.01054262  0.27236141  0.22057431    -0.02700
C821        C  0.97791070  0.30315891  0.20722637     0.07200
C822        C  0.94632093  0.31460385  0.24059050    -0.02900
Br823      Br  0.89361763  0.34833177  0.23319773    -0.01400
Br824      Br  0.89445761  0.29421058  0.31826847    -0.01500
Br825      Br  0.05437947  0.24998338  0.18129491    -0.01500
Br826      Br  0.05639187  0.21546496  0.28034655    -0.01500
C827        C  0.02316383  0.26468447  0.73187686    -0.02600
C828        C  0.98940472  0.27682245  0.70450783     0.07100
C829        C  0.95492455  0.30047568  0.72305715    -0.02700
C830        C  0.95427233  0.31198636  0.76776499    -0.02700
C831        C  0.99166389  0.30468508  0.79567098     0.07200
C832        C  0.02575658  0.27977645  0.77497393    -0.02900
Br833      Br  0.07993232  0.26577733  0.80132663    -0.01400
Br834      Br  0.06455985  0.22269452  0.71114237    -0.01500
Br835      Br  0.89594481  0.32792147  0.78757444    -0.01500
Br836      Br  0.90572846  0.31539008  0.68758143    -0.01500
C837        C  0.84517820  0.41546383  0.42307526    -0.02600
C838        C  0.88142795  0.39810967  0.40215940     0.07100
C839        C  0.89031431  0.41091031  0.35919028    -0.02700
C840        C  0.86327170  0.44101590  0.33737558    -0.02700
C841        C  0.82893414  0.46312983  0.36014663     0.07200
C842        C  0.81625093  0.44261976  0.40069411    -0.02900
Br843      Br  0.75648049  0.43453660  0.42011318    -0.01400
Br844      Br  0.83663685  0.40469696  0.48402440    -0.01500
Br845      Br  0.87550406  0.44813069  0.27594914    -0.01500
Br846      Br  0.94486396  0.39337848  0.33334960    -0.01500
C847        C  0.86906127  0.44333050  0.65324154    -0.02600
C848        C  0.82388681  0.44715592  0.64189581     0.07100
C849        C  0.80547745  0.40955103  0.62116644    -0.02700
C850        C  0.83288586  0.37976673  0.60058169    -0.02700
C851        C  0.87821547  0.38396572  0.60299562     0.07200
C852        C  0.89596139  0.41287390  0.63256121    -0.02900
Br853      Br  0.95816977  0.41314863  0.64151501    -0.01400
Br854      Br  0.89769498  0.48094005  0.69352809    -0.01500
Br855      Br  0.80788527  0.33193114  0.56933507    -0.01500
Br856      Br  0.74521905  0.38905627  0.62711132    -0.01500
C857        C  0.10882430  0.39588409  0.64285242    -0.02600
C858        C  0.08603234  0.40503107  0.60438619     0.07100
C859        C  0.08715651  0.44800354  0.58888036    -0.02700
C860        C  0.12140975  0.47545138  0.60073768    -0.02700
C861        C  0.14570983  0.46835439  0.63999193     0.07200
C862        C  0.13411129  0.42859749  0.66290625    -0.02900
Br863      Br  0.14861167  0.41509745  0.72128771    -0.01400
Br864      Br  0.10432806  0.33868125  0.66979935    -0.01500
Br865      Br  0.13833565  0.51583257  0.55523613    -0.01500
Br866      Br  0.04287015  0.47127501  0.55114881    -0.01500
C867        C  0.13559321  0.44351929  0.33758026    -0.02600
C868        C  0.15795423  0.47673488  0.36291628     0.07100
C869        C  0.14789373  0.47303052  0.40894008    -0.02700
C870        C  0.12620563  0.43657585  0.42796384    -0.02700
C871        C  0.10397107  0.40701741  0.40308471     0.07200
C872        C  0.10833433  0.41093805  0.35806449    -0.02900
Br873      Br  0.07342943  0.37124743  0.32520185    -0.01400
Br874      Br  0.13306483  0.43997667  0.27469199    -0.01500
Br875      Br  0.13094130  0.42329208  0.48883888    -0.01500
Br876      Br  0.16008033  0.51691774  0.45023930    -0.01500
C877        C  0.11624741  0.07979527  0.58342922    -0.02600
C878        C  0.11284602  0.12159817  0.59793597     0.07100
C879        C  0.13049213  0.13047855  0.63869074    -0.02700
C880        C  0.13910862  0.09618150  0.66848088    -0.02700
C881        C  0.13225999  0.05164451  0.65660537     0.07200
C882        C  0.11535018  0.04610554  0.61362477    -0.02900
Br883      Br  0.06644288  0.00991087  0.59938208    -0.01400
Br884      Br  0.11845974  0.06789242  0.52245338    -0.01500
Br885      Br  0.15747700  0.11367391  0.72515392    -0.01500
Br886      Br  0.15254240  0.18798310  0.64952472    -0.01500
C887        C  0.91642319  0.05786660  0.61609395    -0.02600
C888        C  0.89956256  0.09990101  0.61127234     0.07100
C889        C  0.85984980  0.10770951  0.63379718    -0.02700
C890        C  0.83523682  0.07298262  0.65279592    -0.02700
C891        C  0.85613101  0.03353792  0.66731188     0.07200
C892        C  0.89918384  0.02845444  0.64813884    -0.02900
Br893      Br  0.93908595  0.98355535  0.66526976    -0.01400
Br894      Br  0.96243115  0.03842018  0.57825632    -0.01500
Br895      Br  0.77337392  0.08107204  0.64407235    -0.01500
Br896      Br  0.83541904  0.16515398  0.63811702    -0.01500
C897        C  0.85453371  0.11430276  0.38007419    -0.02600
C898        C  0.90016644  0.11364057  0.38207112     0.07100
C899        C  0.92178419  0.09103666  0.34933859    -0.02700
C900        C  0.89813246  0.06386864  0.32094578    -0.02700
C901        C  0.85370124  0.05162655  0.32985350     0.07200
C902        C  0.83116395  0.08367540  0.35535253    -0.02900
Br903      Br  0.76900899  0.08902797  0.36181173    -0.01400
Br904      Br  0.82352636  0.15760270  0.41209767    -0.01500
Br905      Br  0.91908229  0.06639888  0.26211643    -0.01500
Br906      Br  0.98138705  0.10729172  0.33654862    -0.01500
C907        C  0.15847817  0.08674058  0.33965070    -0.02600
C908        C  0.14378131  0.04349657  0.34448296     0.07100
C909        C  0.11920846  0.03717245  0.38433124    -0.02700
C910        C  0.09213620  0.06996184  0.40025041    -0.02700
C911        C  0.09893742  0.11384293  0.38702612     0.07200
C912        C  0.13359453  0.12157946  0.35626462    -0.02900
Br913      Br  0.15157660  0.17891731  0.33766331    -0.01400
Br914      Br  0.22038311  0.09484106  0.34502354    -0.01500
Br915      Br  0.04339042  0.05019911  0.43699704    -0.01500
Br916      Br  0.12703518  0.99007831  0.42587434    -0.01500
C917        C  0.02767261  0.74090776  0.27243349    -0.02600
C918        C  0.99509120  0.72661778  0.30173306     0.07100
C919        C  0.96330852  0.69800778  0.28671117    -0.02700
C920        C  0.95884613  0.68955817  0.24204809    -0.02700
C921        C  0.99119632  0.70427465  0.21031933     0.07200
C922        C  0.02796035  0.72707088  0.22876095    -0.02900
Br923      Br  0.08116618  0.74100463  0.19830953    -0.01400
Br924      Br  0.07018577  0.78333699  0.29111768    -0.01500
Br925      Br  0.90480596  0.66037053  0.23044912    -0.01500
Br926      Br  0.92698151  0.66715214  0.32859601    -0.01500
C927        C  0.02415071  0.75005529  0.77632298    -0.02600
C928        C  0.00081712  0.71325097  0.79556481     0.07100
C929        C  0.98626853  0.68259174  0.76514451    -0.02700
C930        C  0.97659997  0.69603656  0.72263293    -0.02700
C931        C  0.99215484  0.73599282  0.70638498     0.07200
C932        C  0.01902162  0.76117163  0.73239979    -0.02900
Br933      Br  0.05223257  0.80915576  0.70723546    -0.01400
Br934      Br  0.07320683  0.77923766  0.80315077    -0.01500
Br935      Br  0.94315609  0.65859159  0.68622645    -0.01500
Br936      Br  0.98834672  0.62110227  0.77609778    -0.01500
C937        C  0.08310823  0.58848731  0.37384194    -0.02600
C938        C  0.09995163  0.61397691  0.40664632     0.07100
C939        C  0.14446214  0.61363304  0.41384984    -0.02700
C940        C  0.17283416  0.59222720  0.38579808    -0.02700
C941        C  0.15673000  0.55834763  0.35889618     0.07200
C942        C  0.11030551  0.55919868  0.35169188    -0.02900
Br943      Br  0.08242442  0.52682579  0.30708523    -0.01400
Br944      Br  0.02274098  0.59488964  0.35893651    -0.01500
Br945      Br  0.22916592  0.61975491  0.38125878    -0.01500
Br946      Br  0.16576754  0.63425632  0.46797630    -0.01500
C947        C  0.14996557  0.61955602  0.60275708    -0.02600
C948        C  0.10477453  0.61870190  0.60988690     0.07100
C949        C  0.08744079  0.58778905  0.63907238    -0.02700
C950        C  0.11319499  0.55427995  0.65632236    -0.02700
C951        C  0.15803867  0.54881409  0.64231697     0.07200
C952        C  0.17584789  0.58364688  0.61466487    -0.02900
Br953      Br  0.22976045  0.58297723  0.58127242    -0.01400
Br954      Br  0.17677117  0.67077673  0.57617455    -0.01500
Br955      Br  0.08456261  0.51682166  0.69988987    -0.01500
Br956      Br  0.02924591  0.59538864  0.66015792    -0.01500
C957        C  0.82822063  0.60927433  0.60464796    -0.02600
C958        C  0.87353605  0.60535108  0.59558762     0.07100
C959        C  0.89092863  0.56361900  0.59910003    -0.02700
C960        C  0.86372070  0.52734448  0.60433473    -0.02700
C961        C  0.82125731  0.53030997  0.62485734     0.07200
C962        C  0.80286633  0.57298314  0.62102814    -0.02900
Br963      Br  0.74416868  0.58502668  0.63992048    -0.01400
Br964      Br  0.80044199  0.66454598  0.59642046    -0.01500
Br965      Br  0.88218557  0.48426195  0.56308119    -0.01500
Br966      Br  0.95273139  0.55293053  0.59526893    -0.01500
C967        C  0.84823975  0.61770651  0.39056621    -0.02600
C968        C  0.88705669  0.60733569  0.41175135     0.07100
C969        C  0.90446984  0.56589231  0.40494016    -0.02700
C970        C  0.88654510  0.53844436  0.37377108    -0.02700
C971        C  0.84463086  0.54661088  0.35533294     0.07200
C972        C  0.83026159  0.59014983  0.35971937    -0.02900
Br973      Br  0.79025056  0.61674106  0.32069435    -0.01400
Br974      Br  0.81319831  0.66469330  0.41052154    -0.01500
Br975      Br  0.93232120  0.51001687  0.34251224    -0.01500
Br976      Br  0.95023544  0.54223986  0.44048377    -0.01500
C977        C  0.06224191  0.93496998  0.37016510    -0.02600
C978        C  0.08645757  0.89850301  0.38254959     0.07100
C979        C  0.12702177  0.89242743  0.36141900    -0.02700
C980        C  0.14408994  0.92349976  0.33097688    -0.02700
C981        C  0.12394194  0.96504066  0.32514416     0.07200
C982        C  0.07957518  0.96693276  0.34106654    -0.02900
Br983      Br  0.04113180  0.01443331  0.32700276    -0.01400
Br984      Br  0.00663755  0.94460970  0.39719824    -0.01500
Br985      Br  0.18841759  0.90147299  0.29228422    -0.01500
Br986      Br  0.16166029  0.84230889  0.37569332    -0.01500
C987        C  0.86356655  0.89347227  0.36361417    -0.02600
C988        C  0.88854503  0.90349950  0.40029161     0.07100
C989        C  0.88613174  0.94672312  0.41544603    -0.02700
C990        C  0.86038117  0.97817996  0.39400303    -0.02700
C991        C  0.84029349  0.96959066  0.35322768     0.07200
C992        C  0.83653472  0.92462920  0.34417574    -0.02900
Br993      Br  0.78799788  0.90152901  0.31423105    -0.01400
Br994      Br  0.86970344  0.83923239  0.33377033    -0.01500
Br995      Br  0.84131609  0.02391932  0.43133157    -0.01500
Br996      Br  0.91958918  0.96663299  0.46434251    -0.01500
C997        C  0.85890481  0.92318984  0.59583326    -0.02600
C998        C  0.88708209  0.89244124  0.61318882     0.07100
C999        C  0.88683976  0.88568259  0.65849084    -0.02700
C1000       C  0.86495028  0.91437614  0.68633922    -0.02700
C1001       C  0.84427371  0.95261143  0.66924453     0.07200
C1002       C  0.83747612  0.95273218  0.62302265    -0.02900
Br1003     Br  0.79647790  0.99016636  0.59479294    -0.01400
Br1004     Br  0.84504223  0.92039690  0.53511363    -0.01500
Br1005     Br  0.85942199  0.89356030  0.74550338    -0.01500
Br1006     Br  0.91579664  0.83556982  0.68315529    -0.01500
C1007       C  0.06706339  0.91487733  0.64983330    -0.02600
C1008       C  0.08639340  0.90467529  0.61014673     0.07100
C1009       C  0.12470888  0.92633910  0.59717848    -0.02700
C1010       C  0.14579714  0.95520533  0.62545131    -0.02700
C1011       C  0.12528590  0.96858293  0.66554210     0.07200
C1012       C  0.08701351  0.94382456  0.67857258    -0.02900
Br1013     Br  0.06202744  0.94086864  0.73604023    -0.01400
Br1014     Br  0.00799049  0.89581464  0.66007753    -0.01500
Br1015     Br  0.20103391  0.97747760  0.60448340    -0.01500
Br1016     Br  0.14144752  0.92496550  0.53646684    -0.01500
C1017       C  0.26721619  0.78207329  0.47329465    -0.02600
C1018       C  0.28318222  0.81322130  0.50388473     0.07100
C1019       C  0.25084823  0.83566221  0.52690648    -0.02700
C1020       C  0.20955002  0.81686503  0.53357034    -0.02700
C1021       C  0.19435942  0.78493080  0.50541337     0.07200
C1022       C  0.22301928  0.76961318  0.47345001    -0.02900
Br1023     Br  0.20261936  0.73036222  0.42997224    -0.01400
Br1024     Br  0.30138880  0.75979656  0.42545425    -0.01500
Br1025     Br  0.17677185  0.83341997  0.58400851    -0.01500
Br1026     Br  0.25549053  0.89690362  0.53567324    -0.01500
C1027       C  0.34019874  0.74052572  0.53898111    -0.02600
C1028       C  0.35401379  0.77400156  0.50780713     0.07100
C1029       C  0.38661972  0.76063658  0.47699953    -0.02700
C1030       C  0.40735375  0.72010570  0.48153544    -0.02700
C1031       C  0.39550704  0.68978941  0.51537644     0.07200
C1032       C  0.36207899  0.70070718  0.54393350    -0.02900
Br1033     Br  0.34271348  0.65818424  0.58755584    -0.01400
Br1034     Br  0.28521946  0.74012831  0.56952487    -0.01500
Br1035     Br  0.45402732  0.70805062  0.44014929    -0.01500
Br1036     Br  0.40537322  0.79485385  0.42633261    -0.01500
C1037       C  0.25988775  0.19691637  0.46670179    -0.02600
C1038       C  0.29091292  0.21327050  0.49709836     0.07100
C1039       C  0.27349425  0.24668660  0.52514107    -0.02700
C1040       C  0.22958611  0.26042212  0.52242523    -0.02700
C1041       C  0.19961662  0.23794226  0.49748569     0.07200
C1042       C  0.21506953  0.20369844  0.47286222    -0.02900
Br1043     Br  0.17491253  0.16140229  0.45199460    -0.01400
Br1044     Br  0.27261595  0.17568513  0.40926543    -0.01500
Br1045     Br  0.20945118  0.30958055  0.55426256    -0.01500
Br1046     Br  0.30461661  0.27279236  0.57216623    -0.01500
C1047       C  0.35926355  0.27775879  0.47350311    -0.02600
C1048       C  0.36795330  0.24278788  0.50325649     0.07100
C1049       C  0.39804817  0.25254602  0.53779968    -0.02700
C1050       C  0.42260529  0.29125390  0.53704123    -0.02700
C1051       C  0.41135377  0.32569216  0.50952884     0.07200
C1052       C  0.37866504  0.31876773  0.47797272    -0.02900
Br1053     Br  0.35988706  0.36397241  0.43732746    -0.01400
Br1054     Br  0.32495623  0.27012920  0.42172910    -0.01500
Br1055     Br  0.46974403  0.29771565  0.57737835    -0.01500
Br1056     Br  0.40120469  0.22377138  0.59427653    -0.01500
C1057       C  0.67330332  0.24918622  0.95755332    -0.02600
C1058       C  0.68728054  0.21806799  0.99042266     0.07100
C1059       C  0.71564211  0.23530498  0.02285225    -0.02700
C1060       C  0.73010003  0.27851991  0.02138752    -0.02700
C1061       C  0.71508135  0.30792156  0.99063640     0.07200
C1062       C  0.68905000  0.29246555  0.95708086    -0.02900
Br1063     Br  0.67900413  0.32925117  0.90644626    -0.01400
Br1064     Br  0.63593760  0.23823944  0.90855326    -0.01500
Br1065     Br  0.77651114  0.29635458  0.05781912    -0.01500
Br1066     Br  0.73121380  0.20459319  0.07543549    -0.01500
C1067       C  0.80173749  0.14336216  0.94366695    -0.02600
C1068       C  0.82181943  0.12248166  0.97869749     0.07100
C1069       C  0.79837954  0.12358571  0.01834978    -0.02700
C1070       C  0.75273270  0.12653873  0.01947516    -0.02700
C1071       C  0.73041667  0.14968072  0.98527136     0.07200
C1072       C  0.75981419  0.16286602  0.94949038    -0.02900
Br1073     Br  0.74520345  0.20433400  0.90455619    -0.01400
Br1074     Br  0.83075498  0.14577511  0.88797431    -0.01500
Br1075     Br  0.72933713  0.09876493  0.07199361    -0.01500
Br1076     Br  0.82920994  0.13035532  0.07234949    -0.01500
C1077       C  0.31379343  0.24978364  0.00998464    -0.02600
C1078       C  0.28339745  0.21417141  0.00855955     0.07100
C1079       C  0.23848267  0.22757267  0.01726101    -0.02700
C1080       C  0.22609994  0.27173909  0.01357536    -0.02700
C1081       C  0.25679180  0.30410088  0.00347971     0.07200
C1082       C  0.30074145  0.29299886  0.00242988    -0.02900
Br1083     Br  0.34398493  0.33838976  0.99350966    -0.01400
Br1084     Br  0.37223498  0.24514360  0.02946939    -0.01500
Br1085     Br  0.16680914  0.28964183  0.02434222    -0.01500
Br1086     Br  0.19230536  0.19082167  0.04268786    -0.01500
C1087       C  0.21445869  0.06767547  0.99665182    -0.02600
C1088       C  0.17973491  0.08507066  0.97549504     0.07100
C1089       C  0.18673698  0.12380827  0.95256637    -0.02700
C1090       C  0.22600297  0.14752898  0.95880937    -0.02700
C1091       C  0.25457720  0.13661299  0.99501329     0.07200
C1092       C  0.24206386  0.09725438  0.01707772    -0.02900
Br1093     Br  0.24664945  0.08705866  0.07796866    -0.01400
Br1094     Br  0.24088178  0.03206222  0.95372348    -0.01500
Br1095     Br  0.23271475  0.19686966  0.92037612    -0.01500
Br1096     Br  0.14451018  0.13987515  0.90964363    -0.01500
C1097       C  0.72439150  0.82189063  0.53996844    -0.02600
C1098       C  0.69583090  0.81376771  0.50391608     0.07100
C1099       C  0.71542216  0.79064209  0.46843913    -0.02700
C1100       C  0.76065375  0.78246175  0.46649184    -0.02700
C1101       C  0.78695424  0.78642874  0.50353043     0.07200
C1102       C  0.76780305  0.80600668  0.54041097    -0.02900
Br1103     Br  0.80072946  0.81236788  0.59340745    -0.01400
Br1104     Br  0.70801557  0.85070025  0.59311139    -0.01500
Br1105     Br  0.78551556  0.77030706  0.41002804    -0.01500
Br1106     Br  0.68236822  0.77052925  0.41912309    -0.01500
C1107       C  0.57651698  0.77242964  0.48604551    -0.02600
C1108       C  0.62049875  0.77683059  0.50044437     0.07100
C1109       C  0.64160212  0.73549156  0.50679508    -0.02700
C1110       C  0.62100101  0.69793689  0.49207935    -0.02700
C1111       C  0.57517305  0.69608105  0.49101234     0.07200
C1112       C  0.55359067  0.73466504  0.49786923    -0.02900
Br1113     Br  0.50465503  0.73632972  0.53676620    -0.01400
Br1114     Br  0.56794890  0.77633294  0.42420962    -0.01500
Br1115     Br  0.65601660  0.65013690  0.47415242    -0.01500
Br1116     Br  0.69160687  0.72307660  0.54247957    -0.01500
C1117       C  0.71868197  0.73867211  0.95653370    -0.02600
C1118       C  0.71167999  0.71310602  0.99469826     0.07100
C1119       C  0.68701187  0.73196488  0.02854114    -0.02700
C1120       C  0.67005040  0.77441847  0.02417520    -0.02700
C1121       C  0.68343990  0.80349480  0.98960342     0.07200
C1122       C  0.70266908  0.78168629  0.95285363    -0.02900
Br1123     Br  0.70412377  0.80451724  0.89414883    -0.01400
Br1124     Br  0.75762015  0.71862993  0.91100008    -0.01500
Br1125     Br  0.61913349  0.78462048  0.05921032    -0.01500
Br1126     Br  0.67567969  0.70099541  0.08274977    -0.01500
C1127       C  0.76410574  0.95079098  0.00821682    -0.02600
C1128       C  0.80131107  0.92976200  0.02168947     0.07100
C1129       C  0.79952264  0.88485109  0.02722297    -0.02700
C1130       C  0.76446377  0.85998354  0.01135490    -0.02700
C1131       C  0.72374936  0.88028862  0.99955372     0.07200
C1132       C  0.72515308  0.92701055  0.00186806    -0.02900
Br1133     Br  0.67533611  0.96164895  0.99558908    -0.01400
Br1134     Br  0.76776003  0.01222924  0.99621811    -0.01500
Br1135     Br  0.77805816  0.79928926  0.01207070    -0.01500
Br1136     Br  0.84585371  0.85821806  0.05989710    -0.01500
C1137       C  0.30477216  0.77532890  0.97654922    -0.02600
C1138       C  0.29121692  0.80096728  0.01281731     0.07100
C1139       C  0.26619193  0.77814299  0.04648731    -0.02700
C1140       C  0.25132520  0.73527627  0.04113493    -0.02700
C1141       C  0.26593023  0.71099657  0.00568850     0.07200
C1142       C  0.29595525  0.73043899  0.97645602    -0.02900
Br1143     Br  0.33028359  0.69433609  0.93966068    -0.01400
Br1144     Br  0.32924772  0.79680280  0.92194973    -0.01500
Br1145     Br  0.20883676  0.71124638  0.08246859    -0.01500
Br1146     Br  0.24849041  0.80411166  0.10064361    -0.01500
C1147       C  0.20973918  0.84777706  0.01449518    -0.02600
C1148       C  0.24974968  0.87222638  0.01944044     0.07100
C1149       C  0.24288459  0.91674655  0.02909545    -0.02700
C1150       C  0.20230703  0.93131322  0.04547897    -0.02700
C1151       C  0.16527980  0.90467259  0.04601871     0.07200
C1152       C  0.16993755  0.86253094  0.03193309    -0.02900
Br1153     Br  0.11948211  0.82601286  0.03500389    -0.01400
Br1154     Br  0.20264225  0.80179238  0.97307669    -0.01500
Br1155     Br  0.19683123  0.98708134  0.07102693    -0.01500
Br1156     Br  0.28599440  0.96025371  0.01516102    -0.01500
C1157       C  0.23110493  0.99188451  0.32497798    -0.02600
C1158       C  0.19788886  0.99836728  0.29352268     0.07100
C1159       C  0.21286693  0.99421683  0.24894700    -0.02700
C1160       C  0.25711085  0.99919131  0.23773536    -0.02700
C1161       C  0.28851204  0.99538110  0.26939844     0.07200
C1162       C  0.27535452  0.98947428  0.31255136    -0.02900
Br1163     Br  0.31948410  0.97917983  0.35480004    -0.01400
Br1164     Br  0.21974409  0.98048827  0.38489629    -0.01500
Br1165     Br  0.27432080  0.01219068  0.17877882    -0.01500
Br1166     Br  0.17902525  0.97016934  0.20248965    -0.01500
C1167       C  0.70289104  0.00400974  0.31914526    -0.02600
C1168       C  0.69381914  0.02020031  0.27767956     0.07100
C1169       C  0.72691729  0.04298384  0.25496497    -0.02700
C1170       C  0.77031338  0.04209516  0.27010270    -0.02700
C1171       C  0.78235828  0.01383738  0.30583644     0.07200
C1172       C  0.74630005  0.99797891  0.33243417    -0.02900
Br1173     Br  0.75143004  0.97839895  0.39176697    -0.01400
Br1174     Br  0.65497800  0.00092347  0.36090212    -0.01500
Br1175     Br  0.81175114  0.07908233  0.23927514    -0.01500
Br1176     Br  0.71286167  0.07414619  0.20219583    -0.01500
C1177       C  0.37308147  0.89470450  0.47988568    -0.02600
C1178       C  0.34584101  0.85799055  0.47284283     0.07100
C1179       C  0.32783675  0.85982542  0.43042139    -0.02700
C1180       C  0.35271786  0.87654856  0.39487756    -0.02700
C1181       C  0.39046728  0.90230528  0.40196169     0.07200
C1182       C  0.39912707  0.91261347  0.44593569    -0.02900
Br1183     Br  0.44454281  0.95251981  0.46357702    -0.01400
Br1184     Br  0.35888171  0.93587101  0.52394347    -0.01500
Br1185     Br  0.33115376  0.86413672  0.33780935    -0.01500
Br1186     Br  0.26656736  0.87073870  0.42337108    -0.01500
C1187       C  0.56747335  0.88275023  0.42253915    -0.02600
C1188       C  0.59447803  0.89740143  0.38902009     0.07100
C1189       C  0.63886035  0.88753725  0.38995960    -0.02700
C1190       C  0.65724865  0.86890090  0.42766789    -0.02700
C1191       C  0.62959096  0.85248255  0.46305530     0.07200
C1192       C  0.58454268  0.86535043  0.46055502    -0.02900
Br1193     Br  0.54161181  0.86165759  0.50681558    -0.01400
Br1194     Br  0.50606403  0.87591227  0.41099162    -0.01500
Br1195     Br  0.71991671  0.87768717  0.42954439    -0.01500
Br1196     Br  0.67406137  0.89545553  0.33789004    -0.01500
C1197       C  0.34430818  0.12649359  0.45456608    -0.02600
C1198       C  0.35747181  0.17162934  0.45696039     0.07100
C1199       C  0.39145216  0.18475728  0.42550861    -0.02700
C1200       C  0.40534481  0.15663406  0.39232545    -0.02700
C1201       C  0.39443819  0.11256881  0.39399330     0.07200
C1202       C  0.36598635  0.09745980  0.42687475    -0.02900
Br1203     Br  0.35910029  0.03619043  0.43652240    -0.01400
Br1204     Br  0.29700798  0.10110071  0.48959082    -0.01500
Br1205     Br  0.44610888  0.17668339  0.34719199    -0.01500
Br1206     Br  0.43144266  0.23356275  0.42945039    -0.01500
C1207       C  0.51223274  0.27418359  0.18542078    -0.02600
C1208       C  0.47743751  0.30077025  0.19978148     0.07100
C1209       C  0.44240227  0.27833880  0.22290731    -0.02700
C1210       C  0.44309035  0.23282454  0.22944341    -0.02700
C1211       C  0.48240009  0.20969511  0.22333594     0.07200
C1212       C  0.51815995  0.23287202  0.20420130    -0.02900
Br1213     Br  0.57756973  0.21267997  0.20613321    -0.01400
Br1214     Br  0.54566334  0.28501205  0.13286237    -0.01500
Br1215     Br  0.38898079  0.20435330  0.24732849    -0.01500
Br1216     Br  0.39185184  0.30778939  0.24628002    -0.01500
C1217       C  0.52988240  0.78289850  0.19332699    -0.02600
C1218       C  0.49990073  0.79906994  0.22444136     0.07100
C1219       C  0.46480745  0.77146875  0.23657841    -0.02700
C1220       C  0.45675980  0.73324969  0.21392892    -0.02700
C1221       C  0.49071533  0.71187245  0.19145783     0.07200
C1222       C  0.52531962  0.74018971  0.17677737    -0.02900
Br1223     Br  0.56007796  0.72761558  0.12623206    -0.01400
Br1224     Br  0.57695713  0.81915746  0.17146706    -0.01500
Br1225     Br  0.39918141  0.73199765  0.19001684    -0.01500
Br1226     Br  0.42621198  0.78437964  0.28425357    -0.01500
C1227       C  0.62072707  0.08115862  0.06712089    -0.02600
C1228       C  0.59738723  0.10563449  0.09669642     0.07100
C1229       C  0.59735074  0.15029141  0.09024393    -0.02700
C1230       C  0.62844448  0.17163165  0.06231186    -0.02700
C1231       C  0.65283068  0.14724533  0.03017296     0.07200
C1232       C  0.64340299  0.10144049  0.03184576    -0.02900
Br1233     Br  0.66276195  0.06367290  0.98774611    -0.01400
Br1234     Br  0.62171906  0.01925811  0.07559440    -0.01500
Br1235     Br  0.62723061  0.23409746  0.06787343    -0.01500
Br1236     Br  0.54461445  0.17847427  0.10769081    -0.01500
C1237       C  0.57929252  0.89638155  0.06629096    -0.02600
C1238       C  0.60026989  0.90771018  0.10413009     0.07100
C1239       C  0.64419883  0.89609596  0.10817599    -0.02700
C1240       C  0.66511042  0.87261578  0.07498940    -0.02700
C1241       C  0.64792158  0.87163242  0.03149203     0.07200
C1242       C  0.60398105  0.88879101  0.02876335    -0.02900
Br1243     Br  0.57811155  0.92382594  0.98387610    -0.01400
Br1244     Br  0.51631964  0.89366481  0.06434303    -0.01500
Br1245     Br  0.71342805  0.83854295  0.09465947    -0.01500
Br1246     Br  0.67670861  0.91165481  0.15889829    -0.01500
C1247       C  0.38977351  0.85427531  0.10513491    -0.02600
C1248       C  0.38995403  0.89934539  0.11021257     0.07100
C1249       C  0.35517029  0.92294768  0.09458676    -0.02700
C1250       C  0.31845574  0.90046871  0.08172451    -0.02700
C1251       C  0.32310792  0.86034974  0.06118414     0.07200
C1252       C  0.35643783  0.83400394  0.08084094    -0.02900
Br1253     Br  0.35895032  0.77133489  0.07920788    -0.01400
Br1254     Br  0.43784356  0.82210829  0.12782857    -0.01500
Br1255     Br  0.27274451  0.90596396  0.12467611    -0.01500
Br1256     Br  0.35167010  0.98423943  0.10336663    -0.01500
C1257       C  0.34125875  0.12949054  0.11955918    -0.02600
C1258       C  0.38136383  0.10909977  0.10921353     0.07100
C1259       C  0.40049961  0.11935599  0.06845954    -0.02700
C1260       C  0.37747976  0.14353682  0.03698571    -0.02700
C1261       C  0.33113465  0.15320755  0.04317944     0.07200
C1262       C  0.31857359  0.15396084  0.08778793    -0.02900
Br1263     Br  0.27536797  0.19311790  0.10907357    -0.01400
Br1264     Br  0.31474425  0.12409873  0.17691405    -0.01500
Br1265     Br  0.41446937  0.16279286  0.98765962    -0.01500
Br1266     Br  0.45955655  0.10116636  0.05470998    -0.01500
C1267       C  0.77165664  0.18006829  0.50532757    -0.02600
C1268       C  0.79006480  0.22169463  0.49853357     0.07100
C1269       C  0.76534585  0.25301623  0.47736353    -0.02700
C1270       C  0.72171859  0.24491956  0.46732936    -0.02700
C1271       C  0.69898756  0.20637056  0.48388787     0.07200
C1272       C  0.72743688  0.17157276  0.49491409    -0.02900
Br1273     Br  0.70969214  0.11148845  0.48992714    -0.01400
Br1274     Br  0.80793914  0.13384292  0.52619060    -0.01500
Br1275     Br  0.70169075  0.28239064  0.42031295    -0.01500
Br1276     Br  0.79290097  0.30686927  0.45827492    -0.01500
C1277       C  0.63220131  0.12763530  0.38414104    -0.02600
C1278       C  0.59040492  0.11018428  0.39225944     0.07100
C1279       C  0.56851580  0.12152144  0.43056733    -0.02700
C1280       C  0.58416287  0.15593846  0.45504198    -0.02700
C1281       C  0.62850886  0.17032296  0.45211837     0.07200
C1282       C  0.65215820  0.15563901  0.41407671    -0.02900
Br1283     Br  0.70707774  0.17914960  0.39267726    -0.01400
Br1284     Br  0.66218588  0.11388841  0.33048021    -0.01500
Br1285     Br  0.53856584  0.19417067  0.47190083    -0.01500
Br1286     Br  0.51358673  0.09478054  0.44778646    -0.01500
C1287       C  0.60675383  0.26723440  0.44230031    -0.02600
C1288       C  0.62986211  0.25075323  0.48002065     0.07100
C1289       C  0.64337048  0.28293705  0.51019508    -0.02700
C1290       C  0.62870851  0.32585363  0.50708805    -0.02700
C1291       C  0.60268383  0.34008855  0.47249084     0.07200
C1292       C  0.59332249  0.31107283  0.43962703    -0.02900
Br1293     Br  0.56235696  0.33262877  0.38985900    -0.01400
Br1294     Br  0.60026559  0.23741801  0.38785846    -0.01500
Br1295     Br  0.64250992  0.36432188  0.55348439    -0.01500
Br1296     Br  0.68006715  0.26953559  0.55940618    -0.01500
C1297       C  0.25320535  0.96668597  0.73547499    -0.02600
C1298       C  0.27966107  0.00476079  0.73485179     0.07100
C1299       C  0.26072559  0.04240179  0.71785375    -0.02700
C1300       C  0.22362868  0.04022525  0.69234279    -0.02700
C1301       C  0.19250559  0.00593149  0.69848357     0.07200
C1302       C  0.20943603  0.96788818  0.72022199    -0.02900
Br1303     Br  0.17442194  0.91657836  0.73220204    -0.01400
Br1304     Br  0.27391013  0.91345628  0.76169997    -0.01500
Br1305     Br  0.23058829  0.07481068  0.64022943    -0.01500
Br1306     Br  0.27507334  0.09827251  0.74006689    -0.01500
C1307       C  0.75037124  0.97155128  0.68838599    -0.02600
C1308       C  0.78304356  0.00134273  0.70295295     0.07100
C1309       C  0.76735286  0.03602567  0.72951496    -0.02700
C1310       C  0.72250406  0.04011002  0.73925118    -0.02700
C1311       C  0.69141993  0.01396644  0.71942969     0.07200
C1312       C  0.70620669  0.98201550  0.69128195    -0.02900
Br1313     Br  0.66619010  0.95137852  0.65571234    -0.01400
Br1314     Br  0.75894238  0.91025691  0.67884165    -0.01500
Br1315     Br  0.70428912  0.07906206  0.78290704    -0.01500
Br1316     Br  0.80564681  0.07923508  0.75396724    -0.01500
C1317       C  0.39005205  0.14239884  0.53668135    -0.02600
C1318       C  0.35096050  0.16721701  0.53790133     0.07100
C1319       C  0.32362934  0.15810859  0.57533543    -0.02700
C1320       C  0.34218810  0.13753352  0.61176351    -0.02700
C1321       C  0.37751681  0.10896338  0.60594669     0.07200
C1322       C  0.39524303  0.10680873  0.56386370    -0.02900
Br1323     Br  0.43004415  0.05974815  0.54185511    -0.01400
Br1324     Br  0.44271032  0.16015511  0.50823878    -0.01500
Br1325     Br  0.32580868  0.16006545  0.66704405    -0.01500
Br1326     Br  0.26179616  0.16641780  0.58086030    -0.01500
C1327       C  0.56405526  0.16291455  0.58225905    -0.02600
C1328       C  0.58243348  0.12332688  0.59469652     0.07100
C1329       C  0.62660756  0.11780021  0.58369218    -0.02700
C1330       C  0.65043980  0.15035234  0.55971588    -0.02700
C1331       C  0.62913226  0.18374866  0.53548932     0.07200
C1332       C  0.58746443  0.19358566  0.55528895    -0.02900
Br1333     Br  0.56458784  0.25109861  0.55771198    -0.01400
Br1334     Br  0.50739193  0.17633279  0.60619495    -0.01500
Br1335     Br  0.70273268  0.16584054  0.58978986    -0.01500
Br1336     Br  0.65718843  0.07007919  0.60966980    -0.01500
C1337       C  0.60682472  0.82997954  0.58228695    -0.02600
C1338       C  0.62856551  0.84910586  0.54477675     0.07100
C1339       C  0.63136652  0.89573404  0.54429746    -0.02700
C1340       C  0.60458807  0.92062823  0.57133731    -0.02700
C1341       C  0.58190332  0.90120009  0.60644981     0.07200
C1342       C  0.58555458  0.85605749  0.61331231    -0.02900
Br1343     Br  0.55985463  0.82895576  0.66512403    -0.01400
Br1344     Br  0.61009626  0.76965032  0.59796145    -0.01500
Br1345     Br  0.60047848  0.98231052  0.56059130    -0.01500
Br1346     Br  0.67475644  0.92796264  0.51116462    -0.01500
C1347       C  0.34358495  0.88812388  0.61751046    -0.02600
C1348       C  0.38841037  0.89416614  0.61972657     0.07100
C1349       C  0.41499827  0.86865129  0.59424398    -0.02700
C1350       C  0.39750370  0.84449342  0.56043268    -0.02700
C1351       C  0.35118253  0.83901500  0.55533510     0.07200
C1352       C  0.32614676  0.85565573  0.59121892    -0.02900
Br1353     Br  0.27964578  0.82624597  0.62192172    -0.01400
Br1354     Br  0.30553039  0.92638156  0.64798077    -0.01500
Br1355     Br  0.44063712  0.82667579  0.51980952    -0.01500
Br1356     Br  0.47608869  0.86830734  0.60528123    -0.01500
C1357       C  0.53108708  0.28387381  0.79052360    -0.02600
C1358       C  0.49205954  0.30692045  0.80389414     0.07100
C1359       C  0.45407771  0.28001316  0.80502388    -0.02700
C1360       C  0.45116602  0.24220764  0.78031746    -0.02700
C1361       C  0.48844976  0.21925199  0.76838793     0.07200
C1362       C  0.52871537  0.24172582  0.77206680    -0.02900
Br1363     Br  0.57978403  0.22086018  0.74121891    -0.01400
Br1364     Br  0.59036512  0.30312662  0.79956838    -0.01500
Br1365     Br  0.39884317  0.23399060  0.74822433    -0.01500
Br1366     Br  0.42052727  0.27367827  0.85769676    -0.01500
C1367       C  0.53121844  0.79140227  0.79250182    -0.02600
C1368       C  0.49538132  0.80837650  0.77027209     0.07100
C1369       C  0.46416403  0.77931205  0.75542513    -0.02700
C1370       C  0.46519929  0.73473210  0.76722604    -0.02700
C1371       C  0.49772763  0.71680048  0.79612093     0.07200
C1372       C  0.53083329  0.74812625  0.80909573    -0.02900
Br1373     Br  0.58223981  0.73703022  0.84373901    -0.01400
Br1374     Br  0.58532120  0.82520012  0.79381221    -0.01500
Br1375     Br  0.41759925  0.70159422  0.74371989    -0.01500
Br1376     Br  0.42387291  0.80022458  0.71208056    -0.01500
C1377       C  0.35755555  0.14935148  0.88891434    -0.02600
C1378       C  0.37477474  0.10742150  0.89360465     0.07100
C1379       C  0.36335622  0.08321275  0.93066966    -0.02700
C1380       C  0.33719869  0.10079094  0.96350726    -0.02700
C1381       C  0.32380861  0.14614523  0.96234255     0.07200
C1382       C  0.33593096  0.17004500  0.92366304    -0.02900
Br1383     Br  0.33161847  0.23192386  0.91685921    -0.01400
Br1384     Br  0.36230196  0.17893276  0.83403239    -0.01500
Br1385     Br  0.33051172  0.06112032  0.01319424    -0.01500
Br1386     Br  0.38340309  0.02432246  0.93684799    -0.01500
C1387       C  0.39864893  0.89990350  0.94603517    -0.02600
C1388       C  0.37960857  0.92033257  0.91014543     0.07100
C1389       C  0.33387966  0.91977686  0.90870397    -0.02700
C1390       C  0.30784213  0.89604418  0.93989039    -0.02700
C1391       C  0.32654855  0.87399191  0.97700022     0.07200
C1392       C  0.37362478  0.87361244  0.97563386    -0.02900
Br1393     Br  0.40715248  0.82655481  0.99855476    -0.01400
Br1394     Br  0.46023627  0.90702651  0.95496274    -0.01500
Br1395     Br  0.24819795  0.88869834  0.92295396    -0.01500
Br1396     Br  0.30637953  0.95677098  0.86617093    -0.01500
C1397       C  0.67461437  0.90140043  0.91713387    -0.02600
C1398       C  0.65591703  0.86970117  0.94674223     0.07100
C1399       C  0.61518137  0.85145506  0.93276744    -0.02700
C1400       C  0.58993764  0.87347281  0.90138992    -0.02700
C1401       C  0.60424865  0.91350716  0.88394744     0.07200
C1402       C  0.64778485  0.92581102  0.88941611    -0.02900
Br1403     Br  0.67071585  0.97633691  0.85873949    -0.01400
Br1404     Br  0.73627900  0.90563706  0.90478118    -0.01500
Br1405     Br  0.53233126  0.85283000  0.88756655    -0.01500
Br1406     Br  0.59005835  0.79847443  0.95597571    -0.01500
C1407       C  0.60378598  0.15493502  0.95226449    -0.02600
C1408       C  0.65105766  0.15280324  0.94916857     0.07100
C1409       C  0.66674885  0.13493153  0.90896421    -0.02700
C1410       C  0.63848322  0.13136836  0.87442717    -0.02700
C1411       C  0.59518560  0.12037904  0.88312116     0.07200
C1412       C  0.57748188  0.13224406  0.92319860    -0.02900
Br1413     Br  0.51597893  0.12431425  0.93559334    -0.01400
Br1414     Br  0.57156221  0.19532731  0.98679377    -0.01500
Br1415     Br  0.65362358  0.16300785  0.82214614    -0.01500
Br1416     Br  0.71473053  0.09630750  0.89902605    -0.01500
loop_ 
_geom_bond_atom_site_label_1 
_geom_bond_atom_site_label_2 
_geom_bond_distance 
_geom_bond_site_symmetry_2 
_ccdc_geom_bond_type 
O1           C12   1.292       .  A
O1          Eu37   2.458       .  S
O2           C13   1.306       .  A
O2          Eu36   2.548       .  S
O3           C14   1.296       .  A
O3           Eu9   2.493       .  S
O4           C15   1.290       .  A
O4           Eu9   2.469       .  S
O5           C15   1.303       .  A
O5          Eu39   2.534       .  S
O6           C14   1.290   1_565  A
O6          Eu38   2.455       .  S
O7           C13   1.294       .  A
O7           Eu9   2.477       .  S
O8           C12   1.290       .  A
O8           Eu9   2.451       .  S
Eu9          O19   2.370       .  S
Eu9          O11   2.362       .  S
Eu9          O10   2.363       .  S
Eu9          O17   2.354       .  S
O10         Eu39   2.373       .  S
O10         Eu36   2.370       .  S
O11         Eu37   2.371       .  S
O11         Eu38   2.347   1_545  S
C12        C1411   1.482       .  S
C13        C1328   1.519       .  S
C14        C1311   1.498       .  S
C15        C1361   1.534       .  S
H16          O17   0.966       .  S
O17         Eu38   2.344   1_545  S
O17         Eu36   2.332       .  S
H18          O19   0.965       .  S
O19         Eu37   2.361       .  S
O19         Eu39   2.358       .  S
O20          C43   1.298       .  A
O20         Eu36   2.486   1_565  S
O21          C44   1.298       .  A
O21         Eu37   2.503   1_565  S
O22          C45   1.286       .  A
O22         Eu38   2.436       .  S
O23          C46   1.286       .  A
O23         Eu39   2.447       .  S
O24          C47   1.284       .  A
O24         Eu39   2.426       .  S
O25          C48   1.281       .  A
O25         Eu38   2.407       .  S
O26          C49   1.296       .  A
O26         Eu40   2.493       .  S
O27          C50   1.290   1_565  A
O27         Eu40   2.472       .  S
O28          C49   1.285       .  A
O28         Eu38   2.443       .  S
O29          C50   1.298       .  A
O29         Eu39   2.503       .  S
O30          C45   1.296       .  A
O30         Eu36   2.489   1_565  S
O31          C48   1.303       .  A
O31         Eu37   2.528   1_565  S
O32          C47   1.301       .  A
O32         Eu37   2.510       .  S
O33          C46   1.286       .  A
O33         Eu36   2.439       .  S
O34          C43   1.290       .  A
O34         Eu40   2.448       .  S
O35          C44   1.298       .  A
O35         Eu40   2.503       .  S
Eu36         O54   2.363       .  S
Eu36         O42   2.361   1_545  S
Eu37         O41   2.364       .  S
Eu37         O52   2.347   1_545  S
Eu38         O52   2.368       .  S
Eu38         O42   2.330       .  S
Eu39         O41   2.372       .  S
Eu39         O54   2.356       .  S
Eu40         O41   2.353   1_565  S
Eu40         O52   2.354       .  S
Eu40         O54   2.375   1_565  S
Eu40         O42   2.371       .  S
C43        C1348   1.480       .  S
C44        C1388   1.527       .  S
C45        C1341   1.496       .  S
C46        C1321   1.492       .  S
C47        C1378   1.501       .  S
C48        C1401   1.481       .  S
C49        C1368   1.508       .  S
C50        C1298   1.525       .  S
H51          O52   0.966       .  S
H53          O54   0.965       .  S
C55        C1271   1.612       .  S
C55        C1281   1.599       .  S
C55        C1288   1.598       .  S
C55        C1331   1.661       .  S
O56          C67   1.286       .  A
O56         Eu92   2.436       .  S
O57          C68   1.295       .  A
O57         Eu91   2.477       .  S
O58          C69   1.289       .  A
O58         Eu64   2.447       .  S
O59          C70   1.288       .  A
O59         Eu64   2.460       .  S
O60          C70   1.289       .  A
O60         Eu94   2.469       .  S
O61          C69   1.298   1_565  A
O61         Eu93   2.502       .  S
O62          C68   1.298       .  A
O62         Eu64   2.498       .  S
O63          C67   1.297       .  A
O63         Eu64   2.490       .  S
Eu64         O74   2.359       .  S
Eu64         O66   2.352       .  S
Eu64         O65   2.348       .  S
Eu64         O72   2.367       .  S
O65         Eu94   2.351       .  S
O65         Eu91   2.348       .  S
O66         Eu92   2.343       .  S
O66         Eu93   2.347   1_545  S
C67        C1278   1.496       .  S
C68        C1228   1.501       .  S
C69        C1168   1.493       .  S
C70        C1211   1.515       .  S
H71          O72   0.965       .  S
O72         Eu93   2.366   1_545  S
O72         Eu91   2.373       .  S
H73          O74   0.965       .  S
O74         Eu92   2.369       .  S
O74         Eu94   2.345       .  S
O75          C98   1.292       .  A
O75         Eu91   2.464   1_565  S
O76          C99   1.285       .  A
O76         Eu92   2.444   1_565  S
O77         C100   1.284       .  A
O77         Eu93   2.427       .  S
O78         C101   1.282       .  A
O78         Eu94   2.426       .  S
O79         C102   1.292       .  A
O79         Eu94   2.467       .  S
O80         C103   1.282       .  A
O80         Eu93   2.416       .  S
O81         C104   1.295       .  A
O81         Eu95   2.484       .  S
O82         C105   1.295       .  A
O82         Eu95   2.479       .  S
O83         C104   1.298       .  A
O83         Eu93   2.512       .  S
O84         C105   1.288   1_545  A
O84         Eu94   2.448       .  S
O85         C100   1.297       .  A
O85         Eu91   2.485   1_565  S
O86         C103   1.299       .  A
O86         Eu92   2.487   1_565  S
O87         C102   1.298       .  A
O87         Eu92   2.505       .  S
O88         C101   1.301       .  A
O88         Eu91   2.516       .  S
O89          C98   1.290       .  A
O89         Eu95   2.449       .  S
O90          C99   1.294       .  A
O90         Eu95   2.489       .  S
Eu91        O109   2.367       .  S
Eu91         O97   2.351   1_545  S
Eu92         O96   2.342       .  S
Eu92        O107   2.371   1_545  S
Eu93        O107   2.367       .  S
Eu93         O97   2.342       .  S
Eu94         O96   2.351       .  S
Eu94        O109   2.363       .  S
Eu95         O96   2.355   1_565  S
Eu95        O107   2.351       .  S
Eu95        O109   2.369   1_565  S
Eu95         O97   2.347       .  S
C98        C1248   1.470       .  S
C99        C1181   1.515       .  S
C100       C1238   1.493       .  S
C101       C1258   1.516       .  S
C102       C1201   1.499       .  S
C103       C1188   1.479       .  S
C104       C1218   1.526       .  S
C105       C1161   1.476       .  S
H106        O107   0.966       .  S
H108        O109   0.966   1_565  S
C110       C1138   1.585       .  S
C110       C1148   1.624       .  S
C110       C1251   1.618       .  S
C110       C1391   1.631   1_554  S
C111       C1121   1.623       .  S
C111       C1131   1.627       .  S
C111       C1241   1.621   1_556  S
C111       C1398   1.599       .  S
C112       C1098   1.605       .  S
C112       C1108   1.610       .  S
C112       C1191   1.610       .  S
C112       C1338   1.593       .  S
C113       C1078   1.632       .  S
C113       C1091   1.610   1_554  S
C113       C1261   1.632       .  S
C113       C1381   1.595   1_554  S
C114       C1058   1.596       .  S
C114       C1071   1.636       .  S
C114       C1231   1.623   1_556  S
C114       C1408   1.602       .  S
C115       C1038   1.619       .  S
C115       C1048   1.586       .  S
C115       C1198   1.625       .  S
C115       C1318   1.583       .  S
C116       C1018   1.572       .  S
C116       C1028   1.618       .  S
C116       C1178   1.624       .  S
C116       C1351   1.619       .  S
O117        C128   1.292       .  A
O117       Eu153   2.480       .  S
O118        C129   1.291   1_455  A
O118       Eu152   2.463       .  S
O119        C130   1.297       .  A
O119       Eu125   2.497       .  S
O120        C131   1.298       .  A
O120       Eu125   2.486       .  S
O121        C131   1.289       .  A
O121       Eu155   2.452       .  S
O122        C130   1.287       .  A
O122       Eu154   2.454       .  S
O123        C129   1.295       .  A
O123       Eu125   2.481       .  S
O124        C128   1.289       .  A
O124       Eu125   2.469       .  S
Eu125       O135   2.361       .  S
Eu125       O127   2.340       .  S
Eu125       O126   2.353       .  S
Eu125       O133   2.348       .  S
O126       Eu155   2.361       .  S
O126       Eu152   2.337   1_655  S
O127       Eu153   2.354       .  S
O127       Eu154   2.358       .  S
C128       C1101   1.528       .  S
C129        C918   1.505       .  S
C130        C988   1.522       .  S
C131        C968   1.507       .  S
H132        O133   0.965       .  S
O133       Eu154   2.377       .  S
O133       Eu152   2.361   1_655  S
H134        O135   0.965       .  S
O135       Eu153   2.328       .  S
O135       Eu155   2.378       .  S
O136        C159   1.291       .  A
O136       Eu152   2.464       .  S
O137        C160   1.292       .  A
O137       Eu153   2.465       .  S
O138        C161   1.302       .  A
O138       Eu154   2.521   1_455  S
O139        C162   1.294       .  A
O139       Eu155   2.478   1_455  S
O140        C163   1.295       .  A
O140       Eu155   2.481       .  S
O141        C164   1.302       .  A
O141       Eu154   2.518       .  S
O142        C165   1.295       .  A
O142       Eu156   2.487       .  S
O143        C166   1.289       .  A
O143       Eu156   2.450       .  S
O144        C165   1.293       .  A
O144       Eu154   2.475   1_455  S
O145        C166   1.303       .  A
O145       Eu155   2.525   1_455  S
O146        C161   1.288       .  A
O146       Eu152   2.444       .  S
O147        C164   1.284       .  A
O147       Eu153   2.420       .  S
O148        C163   1.295       .  A
O148       Eu153   2.497       .  S
O149        C162   1.291       .  A
O149       Eu152   2.455       .  S
O150        C159   1.285       .  A
O150       Eu156   2.435       .  S
O151        C160   1.283   1_455  A
O151       Eu156   2.412       .  S
Eu152       O170   2.353       .  S
Eu152       O158   2.358       .  S
Eu153       O157   2.357       .  S
Eu153       O168   2.378       .  S
Eu154       O168   2.373       .  S
Eu154       O158   2.349   1_655  S
Eu155       O157   2.342       .  S
Eu155       O170   2.367   1_655  S
Eu156       O157   2.368   1_455  S
Eu156       O168   2.345   1_455  S
Eu156       O170   2.353       .  S
Eu156       O158   2.345       .  S
C159       C1021   1.486       .  S
C160        C931   1.470       .  S
C161        C978   1.513       .  S
C162        C938   1.479       .  S
C163        C958   1.522       .  S
C164        C998   1.490       .  S
C165       C1008   1.493       .  S
C166        C948   1.502       .  S
H167        O168   0.966       .  S
H169        O170   0.966       .  S
O171        C182   1.295       .  A
O171       Eu207   2.496       .  S
O172        C183   1.295   1_455  A
O172       Eu206   2.489       .  S
O173        C184   1.298       .  A
O173       Eu179   2.507       .  S
O174        C185   1.288       .  A
O174       Eu179   2.440       .  S
O175        C185   1.307       .  A
O175       Eu209   2.554       .  S
O176        C184   1.290       .  A
O176       Eu208   2.462       .  S
O177        C183   1.277       .  A
O177       Eu179   2.408       .  S
O178        C182   1.290       .  A
O178       Eu179   2.451       .  S
Eu179       O189   2.357       .  S
Eu179       O181   2.336       .  S
Eu179       O180   2.346       .  S
Eu179       O187   2.359       .  S
O180       Eu209   2.355       .  S
O180       Eu206   2.355   1_655  S
O181       Eu207   2.374       .  S
O181       Eu208   2.379       .  S
C182       C1268   1.490       .  S
C183        C818   1.491       .  S
C184        C838   1.496       .  S
C185        C898   1.513       .  S
H186        O187   0.966       .  S
O187       Eu208   2.358       .  S
O187       Eu206   2.380   1_655  S
H188        O189   0.965       .  S
O189       Eu207   2.349       .  S
O189       Eu209   2.339       .  S
O190        C213   1.297       .  A
O190       Eu206   2.492       .  S
O191        C214   1.293       .  A
O191       Eu207   2.478       .  S
O192        C215   1.302       .  A
O192       Eu208   2.517   1_455  S
O193        C216   1.291       .  A
O193       Eu209   2.475   1_455  S
O194        C217   1.302       .  A
O194       Eu209   2.527       .  S
O195        C218   1.297       .  A
O195       Eu208   2.493       .  S
O196        C219   1.291       .  A
O196       Eu210   2.467       .  S
O197        C220   1.281       .  A
O197       Eu210   2.409       .  S
O198        C219   1.289       .  A
O198       Eu208   2.460   1_455  S
O199        C220   1.304       .  A
O199       Eu209   2.515   1_455  S
O200        C215   1.293       .  A
O200       Eu206   2.471       .  S
O201        C218   1.286       .  A
O201       Eu207   2.426       .  S
O202        C217   1.287       .  A
O202       Eu207   2.453       .  S
O203        C216   1.296       .  A
O203       Eu206   2.507       .  S
O204        C213   1.295       .  A
O204       Eu210   2.483       .  S
O205        C214   1.300   1_455  A
O205       Eu210   2.516       .  S
Eu206       O224   2.354       .  S
Eu206       O212   2.382       .  S
Eu207       O211   2.354       .  S
Eu207       O222   2.363       .  S
Eu208       O222   2.348       .  S
Eu208       O212   2.371   1_655  S
Eu209       O211   2.381       .  S
Eu209       O224   2.358   1_655  S
Eu210       O211   2.377   1_455  S
Eu210       O222   2.331   1_455  S
Eu210       O224   2.372       .  S
Eu210       O212   2.358       .  S
C213       C1041   1.504       .  S
C214        C828   1.526       .  S
C215        C871   1.511       .  S
C216        C911   1.534       .  S
C217        C888   1.532       .  S
C218        C851   1.479       .  S
C219        C858   1.509       .  S
C220        C878   1.494       .  S
H221        O222   0.964       .  S
H223        O224   0.964       .  S
C225        C798   1.610       .  S
C225        C808   1.614       .  S
C225        C848   1.599       .  S
C225        C961   1.630       .  S
C226        C778   1.626       .  S
C226        C788   1.602       .  S
C226        C861   1.615       .  S
C226        C951   1.604       .  S
C227        C771   1.635   1_545  S
C227        C901   1.636       .  S
C227        C991   1.613   1_545  S
C227       C1171   1.596       .  S
C228        C758   1.620       .  S
C228        C891   1.634   1_565  S
C228       C1001   1.600       .  S
C228       C1308   1.578   1_565  S
C229        C738   1.615       .  S
C229        C751   1.618       .  S
C229        C841   1.616       .  S
C229        C971   1.608       .  S
C230        C721   1.572       .  S
C230        C728   1.632       .  S
C230        C868   1.648       .  S
C230        C941   1.593       .  S
C231        C711   1.621       .  S
C231        C908   1.635       .  S
C231        C981   1.611   1_545  S
C231       C1158   1.600   1_545  S
C232        C698   1.604       .  S
C232        C881   1.600       .  S
C232       C1011   1.607   1_545  S
C232       C1301   1.612       .  S
O233        C244   1.292       .  A
O233       Eu269   2.476       .  S
O234        C245   1.299       .  A
O234       Eu268   2.511       .  S
O235        C246   1.287       .  A
O235       Eu241   2.436       .  S
O236        C247   1.293       .  A
O236       Eu241   2.472       .  S
O237        C247   1.289       .  A
O237       Eu271   2.454   1_554  S
O238        C246   1.293       .  A
O238       Eu270   2.471   1_554  S
O239        C245   1.297       .  A
O239       Eu241   2.499       .  S
O240        C244   1.295   1_554  A
O240       Eu241   2.495       .  S
Eu241       O251   2.354   1_554  S
Eu241       O243   2.346   1_554  S
Eu241       O242   2.337       .  S
Eu241       O249   2.374       .  S
O242       Eu271   2.363   1_554  S
O242       Eu268   2.364       .  S
O243       Eu269   2.345       .  S
O243       Eu270   2.361       .  S
C244       C1118   1.528       .  S
C245        C741   1.532       .  S
C246        C631   1.490       .  S
C247        C688   1.502       .  S
H248        O249   0.965       .  S
O249       Eu270   2.379   1_554  S
O249       Eu268   2.330       .  S
H250        O251   0.964       .  S
O251       Eu269   2.349       .  S
O251       Eu271   2.381       .  S
O252        C275   1.299   1_554  A
O252       Eu268   2.502       .  S
O253        C276   1.294       .  A
O253       Eu269   2.498       .  S
O254        C277   1.300       .  A
O254       Eu270   2.523   1_554  S
O255        C278   1.305       .  A
O255       Eu271   2.532   1_554  S
O256        C279   1.305       .  A
O256       Eu271   2.540       .  S
O257        C280   1.297       .  A
O257       Eu270   2.487       .  S
O258        C281   1.291       .  A
O258       Eu272   2.466       .  S
O259        C282   1.290       .  A
O259       Eu272   2.458       .  S
O260        C281   1.301       .  A
O260       Eu270   2.515       .  S
O261        C282   1.298       .  A
O261       Eu271   2.497       .  S
O262        C277   1.291       .  A
O262       Eu268   2.478       .  S
O263        C280   1.287       .  A
O263       Eu269   2.428       .  S
O264        C279   1.288       .  A
O264       Eu269   2.441       .  S
O265        C278   1.280       .  A
O265       Eu268   2.388       .  S
O266        C275   1.281       .  A
O266       Eu272   2.414       .  S
O267        C276   1.287       .  A
O267       Eu272   2.447       .  S
Eu268       O286   2.373       .  S
Eu268       O274   2.352   1_554  S
Eu269       O273   2.352       .  S
Eu269       O284   2.357       .  S
Eu270       O284   2.386       .  S
Eu270       O274   2.342       .  S
Eu271       O273   2.353       .  S
Eu271       O286   2.378   1_556  S
Eu272       O273   2.339       .  S
Eu272       O284   2.346       .  S
Eu272       O286   2.357   1_556  S
Eu272       O274   2.365       .  S
C275       C1061   1.495       .  S
C276        C801   1.516       .  S
C277        C621   1.541       .  S
C278        C661   1.485       .  S
C279        C681   1.497       .  S
C280        C638   1.479       .  S
C281        C648   1.502       .  S
C282        C671   1.496       .  S
H283        O284   0.965       .  S
H285        O286   0.966       .  S
O287        C298   1.300   1_556  A
O287       Eu323   2.511       .  S
O288        C299   1.292       .  A
O288       Eu322   2.467       .  S
O289        C300   1.295       .  A
O289       Eu295   2.490       .  S
O290        C301   1.289       .  A
O290       Eu295   2.456       .  S
O291        C301   1.301       .  A
O291       Eu325   2.515       .  S
O292        C300   1.292       .  A
O292       Eu324   2.481   1_554  S
O293        C299   1.282       .  A
O293       Eu295   2.417       .  S
O294        C298   1.282       .  A
O294       Eu295   2.417       .  S
Eu295       O305   2.358   1_554  S
Eu295       O297   2.339   1_554  S
Eu295       O296   2.347       .  S
Eu295       O303   2.355       .  S
O296       Eu325   2.366       .  S
O296       Eu322   2.370       .  S
O297       Eu323   2.362       .  S
O297       Eu324   2.366       .  S
C298       C1141   1.498       .  S
C299        C718   1.482       .  S
C300        C558   1.497       .  S
C301        C601   1.498       .  S
H302        O303   0.965       .  S
O303       Eu324   2.336   1_554  S
O303       Eu322   2.358       .  S
H304        O305   0.965   1_554  S
O305       Eu323   2.359       .  S
O305       Eu325   2.342   1_556  S
O306        C329   1.293       .  A
O306       Eu322   2.476       .  S
O307        C330   1.301       .  A
O307       Eu323   2.508       .  S
O308        C331   1.294       .  A
O308       Eu324   2.490   1_554  S
O309        C332   1.303       .  A
O309       Eu325   2.516       .  S
O310        C333   1.303       .  A
O310       Eu325   2.532   1_556  S
O311        C334   1.290       .  A
O311       Eu324   2.453       .  S
O312        C335   1.290       .  A
O312       Eu326   2.453       .  S
O313        C336   1.287       .  A
O313       Eu326   2.450       .  S
O314        C335   1.292       .  A
O314       Eu324   2.459       .  S
O315        C336   1.295       .  A
O315       Eu325   2.476   1_556  S
O316        C331   1.291       .  A
O316       Eu322   2.475       .  S
O317        C334   1.288       .  A
O317       Eu323   2.456       .  S
O318        C333   1.293       .  A
O318       Eu323   2.479       .  S
O319        C332   1.290       .  A
O319       Eu322   2.454       .  S
O320        C329   1.295   1_556  A
O320       Eu326   2.489       .  S
O321        C330   1.290       .  A
O321       Eu326   2.458       .  S
Eu322       O340   2.351       .  S
Eu322       O328   2.349   1_554  S
Eu323       O327   2.363       .  S
Eu323       O338   2.370       .  S
Eu324       O338   2.362       .  S
Eu324       O328   2.371       .  S
Eu325       O327   2.372   1_554  S
Eu325       O340   2.355       .  S
Eu326       O327   2.366       .  S
Eu326       O338   2.366       .  S
Eu326       O340   2.342   1_556  S
Eu326       O328   2.360       .  S
C329       C1081   1.494       .  S
C330        C781   1.498       .  S
C331        C548   1.526       .  S
C332        C608   1.496       .  S
C333        C588   1.539       .  S
C334        C568   1.499       .  S
C335        C541   1.476       .  S
C336        C578   1.510       .  S
H337        O338   0.965       .  S
H339        O340   0.963       .  S
C341        C531   1.604   1_655  S
C341        C571   1.599   1_655  S
C341        C678   1.629       .  S
C341        C928   1.588   1_655  S
C342        C518   1.621   1_655  S
C342        C538   1.596   1_655  S
C342        C668   1.629       .  S
C342        C831   1.641       .  S
C343        C508   1.617       .  S
C343        C591   1.638       .  S
C343        C641   1.605       .  S
C343       C1371   1.627       .  S
C344        C498   1.592       .  S
C344        C598   1.625       .  S
C344        C628   1.625       .  S
C344       C1221   1.607       .  S
C345        C488   1.607       .  S
C345        C551   1.627   1_655  S
C345        C658   1.584       .  S
C345        C821   1.595       .  S
C346        C481   1.602       .  S
C346        C561   1.625   1_655  S
C346        C691   1.610       .  S
C346        C921   1.611       .  S
C347        C468   1.617       .  S
C347        C581   1.609       .  S
C347        C651   1.593       .  S
C347       C1358   1.635       .  S
C348        C458   1.622       .  S
C348        C611   1.606       .  S
C348        C618   1.622       .  S
C348       C1208   1.582       .  S
O349        C360   1.310       .  A
O349       Eu385   2.566       .  S
O350        C361   1.308       .  A
O350       Eu384   2.553       .  S
O351        C362   1.300       .  A
O351       Eu357   2.524       .  S
O352        C363   1.299       .  A
O352       Eu357   2.523       .  S
O353        C363   1.262       .  A
O353       Eu387   2.340       .  S
O354        C362   1.272       .  A
O354       Eu386   2.343       .  S
O355        C361   1.283       .  A
O355       Eu357   2.393       .  S
O356        C360   1.277       .  A
O356       Eu357   2.373       .  S
Eu357       O367   2.356       .  S
Eu357       O359   2.334       .  S
Eu357       O358   2.332       .  S
Eu357       O365   2.361       .  S
O358       Eu387   2.331       .  S
O358       Eu384   2.363       .  S
O359       Eu385   2.353       .  S
O359       Eu386   2.343       .  S
C360       C1291   1.499       .  S
C361        C471   1.490       .  S
C362        C811   1.465       .  S
C363       C1051   1.495       .  S
H364        O365   0.970       .  S
O365       Eu386   2.340       .  S
O365       Eu384   2.375       .  S
H366        O367   0.965       .  S
O367       Eu385   2.345       .  S
O367       Eu387   2.335       .  S
O368        C391   1.314       .  A
O368       Eu384   2.597       .  S
O369        C392   1.314       .  A
O369       Eu385   2.597       .  S
O370        C393   1.303       .  A
O370       Eu386   2.567       .  S
O371        C394   1.304       .  A
O371       Eu387   2.541       .  S
O372        C395   1.312       .  A
O372       Eu387   2.585       .  S
O373        C396   1.307       .  A
O373       Eu386   2.564       .  S
O374        C397   1.305       .  A
O374       Eu388   2.556       .  S
O375        C398   1.313       .  A
O375       Eu388   2.618       .  S
O376        C397   1.269       .  A
O376       Eu386   2.321       .  S
O377        C398   1.269       .  A
O377       Eu387   2.332       .  S
O378        C393   1.261       .  A
O378       Eu384   2.393       .  S
O379        C396   1.271       .  A
O379       Eu385   2.374       .  S
O380        C395   1.280       .  A
O380       Eu385   2.380       .  S
O381        C394   1.278       .  A
O381       Eu384   2.361       .  S
O382        C391   1.263       .  A
O382       Eu388   2.319       .  S
O383        C392   1.260       .  A
O383       Eu388   2.331       .  S
Eu384       O402   2.331       .  S
Eu384       O390   2.298       .  S
Eu385       O389   2.357       .  S
Eu385       O400   2.343       .  S
Eu386       O400   2.362       .  S
Eu386       O390   2.341       .  S
Eu387       O389   2.346       .  S
Eu387       O402   2.348       .  S
Eu388       O389   2.333       .  S
Eu388       O400   2.365       .  S
Eu388       O402   2.322       .  S
Eu388       O390   2.321       .  S
C391       C1031   1.507       .  S
C392        C501   1.493       .  S
C393        C511   1.511       .  S
C394        C791   1.498       .  S
C395        C461   1.500       .  S
C396        C748   1.518       .  S
C397       C1111   1.471       .  S
C398        C731   1.495       .  S
H399        O400   0.966       .  S
H401        O402   0.965       .  S
O403        C414   1.306       .  A
O403       Eu439   2.548       .  S
O404        C415   1.302       .  A
O404       Eu438   2.528   1_455  S
O405        C416   1.309       .  A
O405       Eu411   2.567       .  S
O406        C417   1.298       .  A
O406       Eu411   2.503   1_545  S
O407        C417   1.283   1_554  A
O407       Eu441   2.414       .  S
O408        C416   1.278   1_655  A
O408       Eu440   2.379       .  S
O409        C415   1.276       .  A
O409       Eu411   2.392   1_545  S
O410        C414   1.283       .  A
O410       Eu411   2.412   1_554  S
Eu411       O421   2.362   1_566  S
Eu411       O413   2.340   1_556  S
Eu411       O412   2.347   1_565  S
Eu411       O419   2.351   1_455  S
O412       Eu441   2.337   1_556  S
O412       Eu438   2.353   1_455  S
O413       Eu439   2.373       .  S
O413       Eu440   2.370   1_454  S
C414       C1151   1.492       .  S
C415        C701   1.506       .  S
C416        C528   1.500       .  S
C417       C1088   1.469       .  S
H418        O419   0.965       .  S
O419       Eu440   2.321       .  S
O419       Eu438   2.363   1_565  S
H420        O421   0.965       .  S
O421       Eu439   2.351   1_545  S
O421       Eu441   2.352       .  S
O422        C445   1.314       .  A
O422       Eu438   2.616       .  S
O423        C446   1.307       .  A
O423       Eu439   2.558   1_655  S
O424        C447   1.310       .  A
O424       Eu440   2.572       .  S
O425        C448   1.296       .  A
O425       Eu441   2.511   1_556  S
O426        C449   1.298       .  A
O426       Eu441   2.519       .  S
O427        C450   1.301       .  A
O427       Eu440   2.515   1_554  S
O428        C451   1.304       .  A
O428       Eu442   2.542   1_565  S
O429        C452   1.307       .  A
O429       Eu442   2.560       .  S
O430        C451   1.279   1_556  A
O430       Eu440   2.381       .  S
O431        C452   1.278       .  A
O431       Eu441   2.376   1_655  S
O432        C447   1.277   1_545  A
O432       Eu438   2.376       .  S
O433        C450   1.283       .  A
O433       Eu439   2.401   1_655  S
O434        C449   1.289       .  A
O434       Eu439   2.425   1_545  S
O435        C448   1.265       .  A
O435       Eu438   2.389   1_455  S
O436        C445   1.274   1_554  A
O436       Eu442   2.368       .  S
O437        C446   1.287   1_545  A
O437       Eu442   2.434       .  S
Eu438       O456   2.351   1_556  S
Eu438       O444   2.344       .  S
Eu439       O443   2.359   1_465  S
Eu439       O454   2.365   1_455  S
Eu440       O454   2.365   1_556  S
Eu440       O444   2.340   1_565  S
Eu441       O443   2.362   1_455  S
Eu441       O456   2.368   1_455  S
Eu442       O443   2.351       .  S
Eu442       O454   2.346   1_545  S
Eu442       O456   2.361       .  S
Eu442       O444   2.363   1_554  S
C445       C1068   1.534       .  S
C446        C768   1.524       .  S
C447        C761   1.493       .  S
C448        C521   1.494       .  S
C449        C708   1.501       .  S
C450        C478   1.478       .  S
C451       C1128   1.490       .  S
C452        C491   1.491       .  S
H453        O454   0.966       .  S
H455        O456   0.965       .  S
C457        C458   1.454       .  A
C457        C462   1.416       .  A
C457       Br464   1.944       .  S
C458        C459   1.436       .  A
C459        C460   1.421       .  A
C459       Br466   1.938       .  S
C460        C461   1.407       .  A
C460       Br465   1.909       .  S
C461        C462   1.392       .  A
C462       Br463   1.922       .  S
C467        C468   1.450       .  A
C467        C472   1.411       .  A
C467       Br474   1.915       .  S
C468        C469   1.454       .  A
C469        C470   1.407       .  A
C469       Br476   1.925       .  S
C470        C471   1.390       .  A
C470       Br475   1.903       .  S
C471        C472   1.398       .  A
C472       Br473   1.930       .  S
C477        C478   1.391       .  A
C477        C482   1.413       .  A
C477       Br484   1.936       .  S
C478        C479   1.387       .  A
C479        C480   1.411       .  A
C479       Br486   1.915   1_655  S
C480        C481   1.455       .  A
C480       Br485   1.940       .  S
C481        C482   1.457       .  A
C482       Br483   1.941       .  S
C487        C488   1.435       .  A
C487        C492   1.399       .  A
C487       Br494   1.938   1_655  S
C488        C489   1.469       .  A
C489        C490   1.420       .  A
C489       Br496   1.929       .  S
C490        C491   1.390       .  A
C490       Br495   1.927       .  S
C491        C492   1.401       .  A
C492       Br493   1.909       .  S
C497        C498   1.407       .  A
C497        C502   1.397       .  A
C497       Br504   1.951       .  S
C498        C499   1.439       .  A
C499        C500   1.423       .  A
C499       Br506   1.931       .  S
C500        C501   1.442       .  A
C500       Br505   1.929       .  S
C501        C502   1.402       .  A
C502       Br503   1.909       .  S
C507        C508   1.447       .  A
C507        C512   1.419       .  A
C507       Br514   1.951       .  S
C508        C509   1.466       .  A
C509        C510   1.427       .  A
C509       Br516   1.929       .  S
C510        C511   1.394       .  A
C510       Br515   1.939       .  S
C511        C512   1.419       .  A
C512       Br513   1.943       .  S
C517        C518   1.438   1_655  A
C517        C522   1.412       .  A
C517       Br524   1.944       .  S
C518        C519   1.475       .  A
C519        C520   1.413       .  A
C519       Br526   1.965       .  S
C520        C521   1.394       .  A
C520       Br525   1.947       .  S
C521        C522   1.418   1_455  A
C522       Br523   1.945       .  S
C527        C528   1.391       .  A
C527        C532   1.422       .  A
C527       Br534   1.911       .  S
C528        C529   1.403   1_455  A
C529        C530   1.413       .  A
C529       Br536   1.927       .  S
C530        C531   1.444   1_655  A
C530       Br535   1.930       .  S
C531        C532   1.445       .  A
C532       Br533   1.909       .  S
C537        C538   1.445       .  A
C537        C542   1.422       .  A
C537       Br544   1.927       .  S
C538        C539   1.455       .  A
C539        C540   1.401       .  A
C539       Br546   1.927   1_455  S
C540        C541   1.383       .  A
C540       Br545   1.935       .  S
C541        C542   1.396       .  A
C542       Br543   1.919       .  S
C547        C548   1.419       .  A
C547        C552   1.421       .  A
C547       Br554   1.946       .  S
C548        C549   1.416       .  A
C549        C550   1.418       .  A
C549       Br556   1.943       .  S
C550        C551   1.450       .  A
C550       Br555   1.937   1_455  S
C551        C552   1.448       .  A
C552       Br553   1.928       .  S
C557        C558   1.400       .  A
C557        C562   1.417       .  A
C557       Br564   1.932       .  S
C558        C559   1.405       .  A
C559        C560   1.418       .  A
C559       Br566   1.932       .  S
C560        C561   1.434       .  A
C560       Br565   1.940       .  S
C561        C562   1.443       .  A
C562       Br563   1.926       .  S
C567        C568   1.419       .  A
C567        C572   1.414       .  A
C567       Br574   1.942       .  S
C568        C569   1.411       .  A
C569        C570   1.393       .  A
C569       Br576   1.934       .  S
C570        C571   1.424       .  A
C570       Br575   1.912   1_455  S
C571        C572   1.440       .  A
C572       Br573   1.940       .  S
C577        C578   1.417       .  A
C577        C582   1.422       .  A
C577       Br584   1.942       .  S
C578        C579   1.401       .  A
C579        C580   1.396       .  A
C579       Br586   1.937       .  S
C580        C581   1.449       .  A
C580       Br585   1.949       .  S
C581        C582   1.445       .  A
C582       Br583   1.939       .  S
C587        C588   1.414       .  A
C587        C592   1.423       .  A
C587       Br594   1.937       .  S
C588        C589   1.423       .  A
C589        C590   1.421       .  A
C589       Br596   1.932       .  S
C590        C591   1.446       .  A
C590       Br595   1.936       .  S
C591        C592   1.458       .  A
C592       Br593   1.924       .  S
C597        C598   1.451       .  A
C597        C602   1.415       .  A
C597       Br604   1.930       .  S
C598        C599   1.451       .  A
C599        C600   1.423       .  A
C599       Br606   1.914       .  S
C600        C601   1.397       .  A
C600       Br605   1.938       .  S
C601        C602   1.399       .  A
C602       Br603   1.935       .  S
C607        C608   1.399       .  A
C607        C612   1.394       .  A
C607       Br614   1.902       .  S
C608        C609   1.415       .  A
C609        C610   1.426       .  A
C609       Br616   1.925       .  S
C610        C611   1.457       .  A
C610       Br615   1.944       .  S
C611        C612   1.414       .  A
C612       Br613   1.929       .  S
C617        C618   1.443       .  A
C617        C622   1.415       .  A
C617       Br624   1.924       .  S
C618        C619   1.441       .  A
C619        C620   1.431       .  A
C619       Br626   1.922       .  S
C620        C621   1.428       .  A
C620       Br625   1.937       .  S
C621        C622   1.416       .  A
C622       Br623   1.934       .  S
C627        C628   1.461       .  A
C627        C632   1.416       .  A
C627       Br634   1.943       .  S
C628        C629   1.433       .  A
C629        C630   1.388       .  A
C629       Br636   1.909       .  S
C630        C631   1.403       .  A
C630       Br635   1.933       .  S
C631        C632   1.416       .  A
C632       Br633   1.944       .  S
C637        C638   1.394       .  A
C637        C642   1.413       .  A
C637       Br644   1.933       .  S
C638        C639   1.398       .  A
C639        C640   1.410       .  A
C639       Br646   1.952       .  S
C640        C641   1.463       .  A
C640       Br645   1.951       .  S
C641        C642   1.455       .  A
C642       Br643   1.943       .  S
C647        C648   1.406       .  A
C647        C652   1.419       .  A
C647       Br654   1.937       .  S
C648        C649   1.412       .  A
C649        C650   1.423       .  A
C649       Br656   1.926       .  S
C650        C651   1.437       .  A
C650       Br655   1.936       .  S
C651        C652   1.446       .  A
C652       Br653   1.929       .  S
C657        C658   1.458       .  A
C657        C662   1.416       .  A
C657       Br664   1.931       .  S
C658        C659   1.445       .  A
C659        C660   1.386       .  A
C659       Br666   1.931       .  S
C660        C661   1.393       .  A
C660       Br665   1.927       .  S
C661        C662   1.392       .  A
C662       Br663   1.922       .  S
C667        C668   1.457       .  A
C667        C672   1.413       .  A
C667       Br674   1.930       .  S
C668        C669   1.462       .  A
C669        C670   1.428       .  A
C669       Br676   1.933       .  S
C670        C671   1.404       .  A
C670       Br675   1.945       .  S
C671        C672   1.393       .  A
C672       Br673   1.939       .  S
C677        C678   1.434       .  A
C677        C682   1.415       .  A
C677       Br684   1.929       .  S
C678        C679   1.438       .  A
C679        C680   1.422       .  A
C679       Br686   1.918       .  S
C680        C681   1.402       .  A
C680       Br685   1.925       .  S
C681        C682   1.403       .  A
C682       Br683   1.918       .  S
C687        C688   1.414       .  A
C687        C692   1.417       .  A
C687       Br694   1.947       .  S
C688        C689   1.409       .  A
C689        C690   1.398       .  A
C689       Br696   1.929       .  S
C690        C691   1.425       .  A
C690       Br695   1.921       .  S
C691        C692   1.453       .  A
C692       Br693   1.940       .  S
C697        C698   1.453       .  A
C697        C702   1.428       .  A
C697       Br704   1.927       .  S
C698        C699   1.427       .  A
C699        C700   1.383       .  A
C699       Br706   1.926       .  S
C700        C701   1.418       .  A
C700       Br705   1.938   1_545  S
C701        C702   1.414       .  A
C702       Br703   1.931       .  S
C707        C708   1.381       .  A
C707        C712   1.385       .  A
C707       Br714   1.891       .  S
C708        C709   1.397       .  A
C709        C710   1.442       .  A
C709       Br716   1.929       .  S
C710        C711   1.474       .  A
C710       Br715   1.920       .  S
C711        C712   1.433       .  A
C712       Br713   1.939   1_545  S
C717        C718   1.415       .  A
C717        C722   1.412       .  A
C717       Br724   1.945       .  S
C718        C719   1.401       .  A
C719        C720   1.407       .  A
C719       Br726   1.944       .  S
C720        C721   1.446       .  A
C720       Br725   1.941       .  S
C721        C722   1.448       .  A
C722       Br723   1.960       .  S
C727        C728   1.422       .  A
C727        C732   1.407       .  A
C727       Br734   1.927       .  S
C728        C729   1.474       .  A
C729        C730   1.420       .  A
C729       Br736   1.931       .  S
C730        C731   1.395       .  A
C730       Br735   1.922       .  S
C731        C732   1.406       .  A
C732       Br733   1.911       .  S
C737        C738   1.446       .  A
C737        C742   1.430       .  A
C737       Br744   1.928       .  S
C738        C739   1.438       .  A
C739        C740   1.424       .  A
C739       Br746   1.926       .  S
C740        C741   1.417       .  A
C740       Br745   1.929       .  S
C741        C742   1.413       .  A
C742       Br743   1.928       .  S
C747        C748   1.414       .  A
C747        C752   1.431       .  A
C747       Br754   1.934       .  S
C748        C749   1.427       .  A
C749        C750   1.396       .  A
C749       Br756   1.950       .  S
C750        C751   1.433       .  A
C750       Br755   1.945       .  S
C751        C752   1.455       .  A
C752       Br753   1.932       .  S
C757        C758   1.472       .  A
C757        C762   1.419       .  A
C757       Br764   1.938       .  S
C758        C759   1.423   1_565  A
C759        C760   1.404   1_545  A
C759       Br766   1.933       .  S
C760        C761   1.404       .  A
C760       Br765   1.897       .  S
C761        C762   1.392       .  A
C762       Br763   1.925       .  S
C767        C768   1.412       .  A
C767        C772   1.416       .  A
C767       Br774   1.942       .  S
C768        C769   1.406       .  A
C769        C770   1.424       .  A
C769       Br776   1.928       .  S
C770        C771   1.444       .  A
C770       Br775   1.910       .  S
C771        C772   1.452       .  A
C772       Br773   1.945       .  S
C777        C778   1.457       .  A
C777        C782   1.401       .  A
C777       Br784   1.948       .  S
C778        C779   1.462       .  A
C779        C780   1.425       .  A
C779       Br786   1.952       .  S
C780        C781   1.405       .  A
C780       Br785   1.930       .  S
C781        C782   1.395       .  A
C782       Br783   1.931       .  S
C787        C788   1.467       .  A
C787        C792   1.425       .  A
C787       Br794   1.926       .  S
C788        C789   1.442       .  A
C789        C790   1.392       .  A
C789       Br796   1.941       .  S
C790        C791   1.402       .  A
C790       Br795   1.931       .  S
C791        C792   1.397       .  A
C792       Br793   1.943       .  S
C797        C798   1.445       .  A
C797        C802   1.420       .  A
C797       Br804   1.926       .  S
C798        C799   1.448       .  A
C799        C800   1.409       .  A
C799       Br806   1.926       .  S
C800        C801   1.413       .  A
C800       Br805   1.939       .  S
C801        C802   1.416       .  A
C802       Br803   1.931       .  S
C807        C808   1.441       .  A
C807        C812   1.409       .  A
C807       Br814   1.893       .  S
C808        C809   1.462       .  A
C809        C810   1.421       .  A
C809       Br816   1.921       .  S
C810        C811   1.391       .  A
C810       Br815   1.947       .  S
C811        C812   1.393       .  A
C812       Br813   1.945       .  S
C817        C818   1.410       .  A
C817        C822   1.413       .  A
C817       Br824   1.964       .  S
C818        C819   1.396   1_655  A
C819        C820   1.413       .  A
C819       Br826   1.934       .  S
C820        C821   1.451   1_455  A
C820       Br825   1.941       .  S
C821        C822   1.456       .  A
C822       Br823   1.952       .  S
C827        C828   1.400   1_455  A
C827        C832   1.422       .  A
C827       Br834   1.939       .  S
C828        C829   1.415       .  A
C829        C830   1.432       .  A
C829       Br836   1.937       .  S
C830        C831   1.465       .  A
C830       Br835   1.958       .  S
C831        C832   1.455   1_655  A
C832       Br833   1.917       .  S
C837        C838   1.397       .  A
C837        C842   1.410       .  A
C837       Br844   1.918       .  S
C838        C839   1.399       .  A
C839        C840   1.423       .  A
C839       Br846   1.934       .  S
C840        C841   1.445       .  A
C840       Br845   1.936       .  S
C841        C842   1.439       .  A
C842       Br843   1.937       .  S
C847        C848   1.444       .  A
C847        C852   1.415       .  A
C847       Br854   1.936       .  S
C848        C849   1.453       .  A
C849        C850   1.409       .  A
C849       Br856   1.958       .  S
C850        C851   1.403       .  A
C850       Br855   1.942       .  S
C851        C852   1.404       .  A
C852       Br853   1.938       .  S
C857        C858   1.415       .  A
C857        C862   1.427       .  A
C857       Br864   1.944       .  S
C858        C859   1.404       .  A
C859        C860   1.404       .  A
C859       Br866   1.942       .  S
C860        C861   1.449       .  A
C860       Br865   1.924       .  S
C861        C862   1.446       .  A
C862       Br863   1.904       .  S
C867        C868   1.475       .  A
C867        C872   1.435       .  A
C867       Br874   1.950       .  S
C868        C869   1.452       .  A
C869        C870   1.417       .  A
C869       Br876   1.919       .  S
C870        C871   1.388       .  A
C870       Br875   1.924       .  S
C871        C872   1.397       .  A
C872       Br873   1.936       .  S
C877        C878   1.382       .  A
C877        C882   1.385       .  A
C877       Br884   1.926       .  S
C878        C879   1.410       .  A
C879        C880   1.421       .  A
C879       Br886   1.935       .  S
C880        C881   1.447       .  A
C880       Br885   1.933       .  S
C881        C882   1.446       .  A
C882       Br883   1.928       .  S
C887        C888   1.411       .  A
C887        C892   1.423       .  A
C887       Br894   1.929       .  S
C888        C889   1.421       .  A
C889        C890   1.420       .  A
C889       Br896   1.943       .  S
C890        C891   1.452       .  A
C890       Br895   1.945       .  S
C891        C892   1.453       .  A
C892       Br893   1.935   1_545  S
C897        C898   1.407       .  A
C897        C902   1.425       .  A
C897       Br904   1.932       .  S
C898        C899   1.403       .  A
C899        C900   1.429       .  A
C899       Br906   1.929       .  S
C900        C901   1.436       .  A
C900       Br905   1.917       .  S
C901        C902   1.453       .  A
C902       Br903   1.929       .  S
C907        C908   1.412       .  A
C907        C912   1.427       .  A
C907       Br914   1.929       .  S
C908        C909   1.443       .  A
C909        C910   1.410       .  A
C909       Br916   1.942   1_545  S
C910        C911   1.423       .  A
C910       Br915   1.952       .  S
C911        C912   1.431       .  A
C912       Br913   1.927       .  S
C917        C918   1.402   1_455  A
C917        C922   1.423       .  A
C917       Br924   1.946       .  S
C918        C919   1.403       .  A
C919        C920   1.417       .  A
C919       Br926   1.928       .  S
C920        C921   1.449       .  A
C920       Br925   1.926       .  S
C921        C922   1.457   1_655  A
C922       Br923   1.915       .  S
C927        C928   1.452       .  A
C927        C932   1.405       .  A
C927       Br934   1.955       .  S
C928        C929   1.422   1_455  A
C929        C930   1.407       .  A
C929       Br936   1.928       .  S
C930        C931   1.402       .  A
C930       Br935   1.931       .  S
C931        C932   1.403   1_655  A
C932       Br933   1.936       .  S
C937        C938   1.399       .  A
C937        C942   1.418       .  A
C937       Br944   1.932       .  S
C938        C939   1.391       .  A
C939        C940   1.400       .  A
C939       Br946   1.923       .  S
C940        C941   1.439       .  A
C940       Br945   1.925       .  S
C941        C942   1.450       .  A
C942       Br943   1.927       .  S
C947        C948   1.404       .  A
C947        C952   1.420       .  A
C947       Br954   1.941       .  S
C948        C949   1.397       .  A
C949        C950   1.413       .  A
C949       Br956   1.914       .  S
C950        C951   1.452       .  A
C950       Br955   1.951       .  S
C951        C952   1.459       .  A
C952       Br953   1.939       .  S
C957        C958   1.424       .  A
C957        C962   1.439       .  A
C957       Br964   1.934       .  S
C958        C959   1.406       .  A
C959        C960   1.398       .  A
C959       Br966   1.936       .  S
C960        C961   1.447       .  A
C960       Br965   1.945       .  S
C961        C962   1.446       .  A
C962       Br963   1.931       .  S
C967        C968   1.408       .  A
C967        C972   1.407       .  A
C967       Br974   1.924       .  S
C968        C969   1.413       .  A
C969        C970   1.411       .  A
C969       Br976   1.940       .  S
C970        C971   1.441       .  A
C970       Br975   1.925       .  S
C971        C972   1.431       .  A
C972       Br973   1.917       .  S
C977        C978   1.409       .  A
C977        C982   1.417       .  A
C977       Br984   1.920       .  S
C978        C979   1.415       .  A
C979        C980   1.422       .  A
C979       Br986   1.939       .  S
C980        C981   1.442       .  A
C980       Br985   1.937       .  S
C981        C982   1.445       .  A
C982       Br983   1.943   1_565  S
C987        C988   1.417       .  A
C987        C992   1.411       .  A
C987       Br994   1.940       .  S
C988        C989   1.428       .  A
C989        C990   1.422       .  A
C989       Br996   1.948       .  S
C990        C991   1.440       .  A
C990       Br995   1.933   1_565  S
C991        C992   1.428       .  A
C992       Br993   1.909       .  S
C997        C998   1.399       .  A
C997       C1002   1.414       .  A
C997      Br1004   1.933       .  S
C998        C999   1.410       .  A
C999       C1000   1.416       .  A
C999      Br1006   1.945       .  S
C1000      C1001   1.444       .  A
C1000     Br1005   1.929       .  S
C1001      C1002   1.446       .  A
C1002     Br1003   1.929       .  S
C1007      C1008   1.397       .  A
C1007      C1012   1.416       .  A
C1007     Br1014   1.924       .  S
C1008      C1009   1.399       .  A
C1009      C1010   1.421       .  A
C1009     Br1016   1.937       .  S
C1010      C1011   1.450       .  A
C1010     Br1015   1.925       .  S
C1011      C1012   1.445       .  A
C1012     Br1013   1.922       .  S
C1017      C1018   1.450       .  A
C1017      C1022   1.409       .  A
C1017     Br1024   1.941       .  S
C1018      C1019   1.410       .  A
C1019      C1020   1.402       .  A
C1019     Br1026   1.924       .  S
C1020      C1021   1.410       .  A
C1020     Br1025   1.922       .  S
C1021      C1022   1.405       .  A
C1022     Br1023   1.936       .  S
C1027      C1028   1.456       .  A
C1027      C1032   1.417       .  A
C1027     Br1034   1.923       .  S
C1028      C1029   1.441       .  A
C1029      C1030   1.419       .  A
C1029     Br1036   1.948       .  S
C1030      C1031   1.431       .  A
C1030     Br1035   1.950       .  S
C1031      C1032   1.392       .  A
C1032     Br1033   1.946       .  S
C1037      C1038   1.444       .  A
C1037      C1042   1.407       .  A
C1037     Br1044   1.939       .  S
C1038      C1039   1.462       .  A
C1039      C1040   1.424       .  A
C1039     Br1046   1.937       .  S
C1040      C1041   1.399       .  A
C1040     Br1045   1.929       .  S
C1041      C1042   1.399       .  A
C1042     Br1043   1.918       .  S
C1047      C1048   1.436       .  A
C1047      C1052   1.407       .  A
C1047     Br1054   1.947       .  S
C1048      C1049   1.458       .  A
C1049      C1050   1.409       .  A
C1049     Br1056   1.947       .  S
C1050      C1051   1.400       .  A
C1050     Br1055   1.939       .  S
C1051      C1052   1.429       .  A
C1052     Br1053   1.959       .  S
C1057      C1058   1.458       .  A
C1057      C1062   1.419       .  A
C1057     Br1064   1.948       .  S
C1058      C1059   1.445   1_556  A
C1059      C1060   1.405       .  A
C1059     Br1066   1.935       .  S
C1060      C1061   1.390   1_554  A
C1060     Br1065   1.916       .  S
C1061      C1062   1.408       .  A
C1062     Br1063   1.947       .  S
C1067      C1068   1.404       .  A
C1067      C1072   1.440       .  A
C1067     Br1074   1.924       .  S
C1068      C1069   1.412   1_556  A
C1069      C1070   1.408       .  A
C1069     Br1076   1.946       .  S
C1070      C1071   1.451   1_554  A
C1070     Br1075   1.944       .  S
C1071      C1072   1.465       .  A
C1072     Br1073   1.933       .  S
C1077      C1078   1.440       .  A
C1077      C1082   1.416       .  A
C1077     Br1084   1.911       .  S
C1078      C1079   1.469       .  A
C1079      C1080   1.426       .  A
C1079     Br1086   1.955       .  S
C1080      C1081   1.396       .  A
C1080     Br1085   1.938       .  S
C1081      C1082   1.399       .  A
C1082     Br1083   1.937   1_554  S
C1087      C1088   1.371       .  A
C1087      C1092   1.407   1_556  A
C1087     Br1094   1.917       .  S
C1088      C1089   1.393       .  A
C1089      C1090   1.425       .  A
C1089     Br1096   1.933       .  S
C1090      C1091   1.470       .  A
C1090     Br1095   1.923       .  S
C1091      C1092   1.430   1_556  A
C1092     Br1093   1.908       .  S
C1097      C1098   1.454       .  A
C1097      C1102   1.428       .  A
C1097     Br1104   1.944       .  S
C1098      C1099   1.447       .  A
C1099      C1100   1.418       .  A
C1099     Br1106   1.953       .  S
C1100      C1101   1.418       .  A
C1100     Br1105   1.938       .  S
C1101      C1102   1.423       .  A
C1102     Br1103   1.951       .  S
C1107      C1108   1.437       .  A
C1107      C1112   1.398       .  A
C1107     Br1114   1.933       .  S
C1108      C1109   1.452       .  A
C1109      C1110   1.405       .  A
C1109     Br1116   1.944       .  S
C1110      C1111   1.412       .  A
C1110     Br1115   1.924       .  S
C1111      C1112   1.390       .  A
C1112     Br1113   1.912       .  S
C1117      C1118   1.419       .  A
C1117      C1122   1.427       .  A
C1117     Br1124   1.947       .  S
C1118      C1119   1.420   1_556  A
C1119      C1120   1.423       .  A
C1119     Br1126   1.937       .  S
C1120      C1121   1.435   1_554  A
C1120     Br1125   1.922       .  S
C1121      C1122   1.452       .  A
C1122     Br1123   1.932       .  S
C1127      C1128   1.388       .  A
C1127      C1132   1.418       .  A
C1127     Br1134   1.932   1_564  S
C1128      C1129   1.397       .  A
C1129      C1130   1.418       .  A
C1129     Br1136   1.941       .  S
C1130      C1131   1.456   1_554  A
C1130     Br1135   1.928       .  S
C1131      C1132   1.449   1_556  A
C1132     Br1133   1.890   1_554  S
C1137      C1138   1.444   1_556  A
C1137      C1142   1.413       .  A
C1137     Br1144   1.938       .  S
C1138      C1139   1.451       .  A
C1139      C1140   1.412       .  A
C1139     Br1146   1.942       .  S
C1140      C1141   1.410       .  A
C1140     Br1145   1.944       .  S
C1141      C1142   1.404   1_554  A
C1142     Br1143   1.921       .  S
C1147      C1148   1.450       .  A
C1147      C1152   1.413       .  A
C1147     Br1154   1.945   1_554  S
C1148      C1149   1.432       .  A
C1149      C1150   1.421       .  A
C1149     Br1156   1.918       .  S
C1150      C1151   1.399       .  A
C1150     Br1155   1.919       .  S
C1151      C1152   1.391       .  A
C1152     Br1153   1.911       .  S
C1157      C1158   1.434       .  A
C1157      C1162   1.412       .  A
C1157     Br1164   1.903       .  S
C1158      C1159   1.453       .  A
C1159      C1160   1.405       .  A
C1159     Br1166   1.942       .  S
C1160      C1161   1.390       .  A
C1160     Br1165   1.921   1_565  S
C1161      C1162   1.394       .  A
C1162     Br1163   1.923       .  S
C1167      C1168   1.399       .  A
C1167      C1172   1.417   1_545  A
C1167     Br1174   1.943       .  S
C1168      C1169   1.403       .  A
C1169      C1170   1.422       .  A
C1169     Br1176   1.935       .  S
C1170      C1171   1.450       .  A
C1170     Br1175   1.931       .  S
C1171      C1172   1.445   1_545  A
C1172     Br1173   1.928       .  S
C1177      C1178   1.427       .  A
C1177      C1182   1.410       .  A
C1177     Br1184   1.930       .  S
C1178      C1179   1.431       .  A
C1179      C1180   1.414       .  A
C1179     Br1186   1.934       .  S
C1180      C1181   1.424       .  A
C1180     Br1185   1.937       .  S
C1181      C1182   1.430       .  A
C1182     Br1183   1.947       .  S
C1187      C1188   1.383       .  A
C1187      C1192   1.395       .  A
C1187     Br1194   1.939       .  S
C1188      C1189   1.403       .  A
C1189      C1190   1.418       .  A
C1189     Br1196   1.934       .  S
C1190      C1191   1.454       .  A
C1190     Br1195   1.946       .  S
C1191      C1192   1.449       .  A
C1192     Br1193   1.931       .  S
C1197      C1198   1.454       .  A
C1197      C1202   1.417       .  A
C1197     Br1204   1.948       .  S
C1198      C1199   1.464       .  A
C1199      C1200   1.421       .  A
C1199     Br1206   1.945       .  S
C1200      C1201   1.401       .  A
C1200     Br1205   1.948       .  S
C1201      C1202   1.400       .  A
C1202     Br1203   1.922       .  S
C1207      C1208   1.427       .  A
C1207      C1212   1.408       .  A
C1207     Br1214   1.929       .  S
C1208      C1209   1.447       .  A
C1209      C1210   1.419       .  A
C1209     Br1216   1.947       .  S
C1210      C1211   1.424       .  A
C1210     Br1215   1.942       .  S
C1211      C1212   1.421       .  A
C1212     Br1213   1.939       .  S
C1217      C1218   1.423       .  A
C1217      C1222   1.433       .  A
C1217     Br1224   1.928       .  S
C1218      C1219   1.411       .  A
C1219      C1220   1.408       .  A
C1219     Br1226   1.927       .  S
C1220      C1221   1.421       .  A
C1220     Br1225   1.931       .  S
C1221      C1222   1.434       .  A
C1222     Br1223   1.926       .  S
C1227      C1228   1.393       .  A
C1227      C1232   1.416       .  A
C1227     Br1234   1.929       .  S
C1228      C1229   1.392       .  A
C1229      C1230   1.426       .  A
C1229     Br1236   1.924       .  S
C1230      C1231   1.461       .  A
C1230     Br1235   1.945       .  S
C1231      C1232   1.444       .  A
C1232     Br1233   1.904   1_554  S
C1237      C1238   1.393       .  A
C1237      C1242   1.400       .  A
C1237     Br1244   1.940       .  S
C1238      C1239   1.409       .  A
C1239      C1240   1.418       .  A
C1239     Br1246   1.938       .  S
C1240      C1241   1.452       .  A
C1240     Br1245   1.931       .  S
C1241      C1242   1.461       .  A
C1242     Br1243   1.930   1_554  S
C1247      C1248   1.406       .  A
C1247      C1252   1.428       .  A
C1247     Br1254   1.925       .  S
C1248      C1249   1.390       .  A
C1249      C1250   1.388       .  A
C1249     Br1256   1.925       .  S
C1250      C1251   1.413       .  A
C1250     Br1255   1.928       .  S
C1251      C1252   1.450       .  A
C1252     Br1253   1.943       .  S
C1257      C1258   1.426       .  A
C1257      C1262   1.424       .  A
C1257     Br1264   1.941       .  S
C1258      C1259   1.410       .  A
C1259      C1260   1.418       .  A
C1259     Br1266   1.950       .  S
C1260      C1261   1.470       .  A
C1260     Br1265   1.966   1_554  S
C1261      C1262   1.425       .  A
C1262     Br1263   1.924       .  S
C1267      C1268   1.412       .  A
C1267      C1272   1.426       .  A
C1267     Br1274   1.931       .  S
C1268      C1269   1.397       .  A
C1269      C1270   1.404       .  A
C1269     Br1276   1.939       .  S
C1270      C1271   1.456       .  A
C1270     Br1275   1.952       .  S
C1271      C1272   1.434       .  A
C1272     Br1273   1.942       .  S
C1277      C1278   1.406       .  A
C1277      C1282   1.422       .  A
C1277     Br1284   1.940       .  S
C1278      C1279   1.404       .  A
C1279      C1280   1.404       .  A
C1279     Br1286   1.936       .  S
C1280      C1281   1.432       .  A
C1280     Br1285   1.917       .  S
C1281      C1282   1.455       .  A
C1282     Br1283   1.934       .  S
C1287      C1288   1.461       .  A
C1287      C1292   1.423       .  A
C1287     Br1294   1.946       .  S
C1288      C1289   1.440       .  A
C1289      C1290   1.409       .  A
C1289     Br1296   1.949       .  S
C1290      C1291   1.412       .  A
C1290     Br1295   1.930       .  S
C1291      C1292   1.400       .  A
C1292     Br1293   1.933       .  S
C1297      C1298   1.425   1_565  A
C1297      C1302   1.435       .  A
C1297     Br1304   1.939       .  S
C1298      C1299   1.404       .  A
C1299      C1300   1.399       .  A
C1299     Br1306   1.922       .  S
C1300      C1301   1.430       .  A
C1300     Br1305   1.923       .  S
C1301      C1302   1.450   1_545  A
C1302     Br1303   1.936       .  S
C1307      C1308   1.440   1_565  A
C1307      C1312   1.402       .  A
C1307     Br1314   1.945       .  S
C1308      C1309   1.446       .  A
C1309      C1310   1.415       .  A
C1309     Br1316   1.945       .  S
C1310      C1311   1.402       .  A
C1310     Br1315   1.907       .  S
C1311      C1312   1.404   1_545  A
C1312     Br1313   1.919       .  S
C1317      C1318   1.434       .  A
C1317      C1322   1.384       .  A
C1317     Br1324   1.901       .  S
C1318      C1319   1.440       .  A
C1319      C1320   1.413       .  A
C1319     Br1326   1.928       .  S
C1320      C1321   1.420       .  A
C1320     Br1325   1.918       .  S
C1321      C1322   1.404       .  A
C1322     Br1323   1.943       .  S
C1327      C1328   1.404       .  A
C1327      C1332   1.431       .  A
C1327     Br1334   1.935       .  S
C1328      C1329   1.409       .  A
C1329      C1330   1.428       .  A
C1329     Br1336   1.928       .  S
C1330      C1331   1.434       .  A
C1330     Br1335   1.932       .  S
C1331      C1332   1.449       .  A
C1332     Br1333   1.923       .  S
C1337      C1338   1.442       .  A
C1337      C1342   1.421       .  A
C1337     Br1344   1.923       .  S
C1338      C1339   1.444       .  A
C1339      C1340   1.409       .  A
C1339     Br1346   1.926       .  S
C1340      C1341   1.402       .  A
C1340     Br1345   1.937       .  S
C1341      C1342   1.415       .  A
C1342     Br1343   1.944       .  S
C1347      C1348   1.393       .  A
C1347      C1352   1.411       .  A
C1347     Br1354   1.922       .  S
C1348      C1349   1.389       .  A
C1349      C1350   1.407       .  A
C1349     Br1356   1.916       .  S
C1350      C1351   1.445       .  A
C1350     Br1355   1.904       .  S
C1351      C1352   1.445       .  A
C1352     Br1353   1.915       .  S
C1357      C1358   1.461       .  A
C1357      C1362   1.435       .  A
C1357     Br1364   1.939       .  S
C1358      C1359   1.427       .  A
C1359      C1360   1.412       .  A
C1359     Br1366   1.918       .  S
C1360      C1361   1.403       .  A
C1360     Br1365   1.922       .  S
C1361      C1362   1.422       .  A
C1362     Br1363   1.947       .  S
C1367      C1368   1.409       .  A
C1367      C1372   1.424       .  A
C1367     Br1374   1.958       .  S
C1368      C1369   1.398       .  A
C1369      C1370   1.421       .  A
C1369     Br1376   1.945       .  S
C1370      C1371   1.459       .  A
C1370     Br1375   1.938       .  S
C1371      C1372   1.465       .  A
C1372     Br1373   1.954       .  S
C1377      C1378   1.412       .  A
C1377      C1382   1.420       .  A
C1377     Br1384   1.913       .  S
C1378      C1379   1.394       .  A
C1379      C1380   1.406       .  A
C1379     Br1386   1.937       .  S
C1380      C1381   1.467       .  A
C1380     Br1385   1.953   1_556  S
C1381      C1382   1.434       .  A
C1382     Br1383   1.928       .  S
C1387      C1388   1.405       .  A
C1387      C1392   1.423       .  A
C1387     Br1394   1.930       .  S
C1388      C1389   1.408       .  A
C1389      C1390   1.429       .  A
C1389     Br1396   1.936       .  S
C1390      C1391   1.452       .  A
C1390     Br1395   1.929       .  S
C1391      C1392   1.449       .  A
C1392     Br1393   1.924       .  S
C1397      C1398   1.437       .  A
C1397      C1402   1.413       .  A
C1397     Br1404   1.932       .  S
C1398      C1399   1.445       .  A
C1399      C1400   1.420       .  A
C1399     Br1406   1.926       .  S
C1400      C1401   1.405       .  A
C1400     Br1405   1.935       .  S
C1401      C1402   1.403       .  A
C1402     Br1403   1.933       .  S
C1407      C1408   1.458       .  A
C1407      C1412   1.411       .  A
C1407     Br1414   1.930       .  S
C1408      C1409   1.447       .  A
C1409      C1410   1.392       .  A
C1409     Br1416   1.934       .  S
C1410      C1411   1.392       .  A
C1410     Br1415   1.920       .  S
C1411      C1412   1.401       .  A
C1412     Br1413   1.937       .  S
