geometry optimzed in LAMMPS
_audit_creation_date              2020-11-30 
_audit_creation_method            'lammps2cif' 
_symmetry_space_group_name_H-M    'P1' 
_symmetry_Int_Tables_number       1 
_symmetry_cell_setting            triclinic 
loop_ 
_symmetry_equiv_pos_as_xyz 
  x,y,z 
_cell_length_a                    42.71085818 
_cell_length_b                    42.73749035116993 
_cell_length_c                    42.54495615194761 
_cell_angle_alpha                 89.66149017362727 
_cell_angle_beta                  89.41590733771233 
_cell_angle_gamma                 90.93144832036307 
loop_ 
_atom_site_label 
_atom_site_type_symbol 
_atom_site_fract_x 
_atom_site_fract_y 
_atom_site_fract_z 
_atom_site_charge 
O1          O  0.52277816  0.04311977  0.83855247    -0.86400
O2          O  0.52330031  0.05122792  0.65824109    -0.86500
O3          O  0.58728812  0.03662490  0.74222706    -0.88200
O4          O  0.51653940  0.10907181  0.75589939    -0.87000
O5          O  0.46268689  0.10852141  0.75762467    -0.86500
O6          O  0.58575899  0.98295859  0.74021946    -0.87900
O7          O  0.54983678  0.07664326  0.69745060    -0.86400
O8          O  0.55086685  0.06983537  0.80062508    -0.86000
Zr9        Zr  0.53315529  0.05486437  0.74859694     2.84300
O10         O  0.48859365  0.05689693  0.71691906    -1.08000
O11         O  0.53218570  0.00901347  0.77954198    -1.08700
C12         C  0.54360649  0.06365999  0.82961549     1.06700
C13         C  0.54376384  0.07141495  0.66815968     1.06700
C14         C  0.60036138  0.00968981  0.73855902     1.09700
C15         C  0.48978904  0.12241628  0.75968994     1.07400
H16         H  0.54991632  0.01233309  0.70210420     0.33000
O17         O  0.53172603  0.01155964  0.71569676    -1.28900
H18         H  0.48847808  0.06995740  0.79467224     0.32700
O19         O  0.48834420  0.05245859  0.78070114    -1.30600
O20         O  0.45373992  0.97570184  0.65676034    -0.86400
O21         O  0.44592999  0.97309905  0.83565832    -0.87900
O22         O  0.54941304  0.94982969  0.69460682    -0.86400
O23         O  0.42744093  0.07731632  0.70076979    -0.86500
O24         O  0.42410691  0.06935957  0.79993822    -0.86200
O25         O  0.55123675  0.94657783  0.79564578    -0.86000
O26         O  0.45835424  0.91134168  0.74850206    -0.86400
O27         O  0.38851524  0.98210656  0.74275211    -0.85800
O28         O  0.51193886  0.91117881  0.74756041    -0.86900
O29         O  0.38933429  0.03588472  0.74402384    -0.86100
O30         O  0.52601111  0.98009675  0.65705474    -0.86500
O31         O  0.52356158  0.97008360  0.83534326    -0.86200
O32         O  0.45186351  0.04420451  0.83815602    -0.85800
O33         O  0.45061439  0.05008264  0.66101346    -0.86200
O34         O  0.42817256  0.94650713  0.69467331    -0.86500
O35         O  0.41935456  0.94871835  0.79614141    -0.87900
Zr36       Zr  0.48781694  0.01318757  0.68368889     2.83100
Zr37       Zr  0.48688474  0.00721464  0.81179605     2.83500
Zr38       Zr  0.53112850  0.96565626  0.74607023     2.84100
Zr39       Zr  0.44395338  0.05435798  0.74936161     2.83400
Zr40       Zr  0.44251233  0.96559906  0.74631633     2.84200
O41         O  0.44245756  0.00870454  0.77990218    -1.08400
O42         O  0.48708853  0.96683280  0.71388605    -1.07900
C43         C  0.43460333  0.95355838  0.66579088     1.06700
C44         C  0.42381962  0.95473038  0.82540453     1.09300
C45         C  0.54542943  0.95896225  0.66598754     1.06900
C46         C  0.43171631  0.07110510  0.67159084     1.07200
C47         C  0.43121191  0.06398067  0.82874822     1.06800
C48         C  0.54483929  0.95135055  0.82491427     1.06400
C49         C  0.48483055  0.89723074  0.74910373     1.06800
C50         C  0.37523515  0.00894524  0.74145935     1.06300
H51         H  0.48593784  0.94518662  0.79133945     0.33000
O52         O  0.48649040  0.96387510  0.77857373    -1.29500
H53         H  0.42506781  0.01156417  0.70230530     0.33000
O54         O  0.44323003  0.01127262  0.71575621    -1.30900
C55         C  0.64687778  0.21059482  0.49967740    -0.02400
O56         O  0.55326743  0.08379286  0.29937681    -0.86400
O57         O  0.43669509  0.94679595  0.29536725    -0.86500
O58         O  0.45893073  0.04465592  0.33833003    -0.88200
O59         O  0.53460802  0.97762038  0.33636507    -0.87000
O60         O  0.56168006  0.95289699  0.29730365    -0.86500
O61         O  0.43210513  0.07199530  0.30118371    -0.87900
O62         O  0.46076475  0.97397756  0.33510794    -0.86400
O63         O  0.52912928  0.05345653  0.33745520    -0.86000
Zr64       Zr  0.49715039  0.01284745  0.31147329     2.84300
O65         O  0.49818161  0.96915671  0.27837055    -1.08000
O66         O  0.49540779  0.05874422  0.28082316    -1.08700
C67         C  0.54662704  0.07694805  0.32826851     1.06700
C68         C  0.44183180  0.95258981  0.32451187     1.06700
C69         C  0.43756135  0.06381430  0.32992594     1.09700
C70         C  0.55550730  0.95823898  0.32656906     1.07400
H71         H  0.43480188  0.01033086  0.29286286     0.33000
O72         O  0.45305354  0.01186296  0.27941274    -1.28900
H73         H  0.55954077  0.01739863  0.29331035     0.32700
O74         O  0.54167120  0.01664484  0.27964276    -1.30600
O75         O  0.43530474  0.95342090  0.19442511    -0.86400
O76         O  0.56132738  0.08115978  0.19833142    -0.87900
O77         O  0.39717711  0.03752895  0.25425265    -0.86400
O78         O  0.52735526  0.91747578  0.24435845    -0.86500
O79         O  0.59671856  0.99388613  0.25093850    -0.86200
O80         O  0.46598724  0.11253815  0.24720824    -0.86000
O81         O  0.45971851  0.05119959  0.15945973    -0.86400
O82         O  0.53367159  0.98013929  0.15796805    -0.85800
O83         O  0.43061457  0.07409310  0.19859646    -0.86900
O84         O  0.56272576  0.95592099  0.19604424    -0.86100
O85         O  0.39868791  0.98415747  0.25240074    -0.86500
O86         O  0.51958303  0.11515066  0.24584790    -0.86200
O87         O  0.59455564  0.04756459  0.25402393    -0.85800
O88         O  0.47365235  0.91570638  0.24122983    -0.86200
O89         O  0.46272899  0.98141330  0.15700637    -0.86500
O90         O  0.53594627  0.05465139  0.15929233    -0.87900
Zr91       Zr  0.45392311  0.96895711  0.24590264     2.83100
Zr92       Zr  0.54002167  0.06214801  0.24851790     2.83500
Zr93       Zr  0.45103631  0.05733422  0.24901486     2.84100
Zr94       Zr  0.54340484  0.97276465  0.24700097     2.83400
Zr95       Zr  0.49845075  0.01724103  0.18376036     2.84200
O96         O  0.54289165  0.01830690  0.21575807    -1.08400
O97         O  0.45274065  0.01434969  0.21515378    -1.07900
C98         C  0.44201448  0.96066826  0.16558329     1.06700
C99         C  0.55648197  0.07497801  0.16909565     1.09300
C100        C  0.38389757  0.01013928  0.25614276     1.06900
C101        C  0.50083930  0.90278637  0.24125060     1.07200
C102        C  0.60917450  0.02137483  0.25456333     1.06800
C103        C  0.49226747  0.12779077  0.24531666     1.06400
C104        C  0.43747919  0.06893679  0.16948018     1.06800
C105        C  0.55468453  0.96072180  0.16730033     1.06300
H106        H  0.49531044  0.07938994  0.20353756     0.33000
O107        O  0.49585476  0.06078104  0.21661328    -1.29500
H108        H  0.49965951  0.95394809  0.20120422     0.33000
O109        O  0.49921470  0.97201547  0.21482412    -1.30900
C110        C  0.30046365  0.85334657  0.00693108    -0.02400
C111        C  0.67860145  0.85658711  0.99398904    -0.02400
C112        C  0.64854314  0.82531372  0.50088346    -0.02400
C113        C  0.30868536  0.16879044  0.99653545    -0.02400
C114        C  0.69119948  0.16293801  0.98790021    -0.02400
C115        C  0.34331690  0.19937375  0.49474009    -0.02400
C116        C  0.33788047  0.81918045  0.49392947    -0.02400
O117        O  0.89054701  0.75898578  0.46973280    -0.86400
O118        O  0.01791977  0.75518747  0.59285160    -0.86500
O119        O  0.93154114  0.70550153  0.56073205    -0.88200
O120        O  0.92899902  0.80757951  0.55961200    -0.87000
O121        O  0.95289973  0.84664774  0.53015061    -0.86500
O122        O  0.95853002  0.66859844  0.53317104    -0.87900
O123        O  0.96441273  0.75528713  0.59427557    -0.86400
O124        O  0.89197996  0.75825730  0.52366619    -0.86000
Zr125      Zr  0.94645146  0.75706003  0.54003403     2.84300
O126        O  0.99035142  0.79045273  0.53880510    -1.08000
O127        O  0.94576976  0.72500916  0.49542997    -1.08700
C128        C  0.87746112  0.76004803  0.49722256     1.06700
C129        C  0.99126696  0.75324581  0.60769574     1.06700
C130        C  0.93971766  0.67701822  0.55526581     1.09700
C131        C  0.93394073  0.83657189  0.55200639     1.07400
H132        H  0.99227187  0.71391711  0.55701160     0.33000
O133        O  0.99148051  0.72690241  0.53844455    -1.28900
H134        H  0.92713813  0.80122388  0.49563944     0.32700
O135        O  0.94551523  0.78860412  0.49499122    -1.30600
O136        O  0.08931117  0.76555467  0.51818669    -0.86400
O137        O  0.96130749  0.75477128  0.39513851    -0.87900
O138        O  0.02818751  0.67083835  0.53161672    -0.86400
O139        O  0.02252030  0.84795777  0.53255722    -0.86500
O140        O  0.95150981  0.84600374  0.45899739    -0.86200
O141        O  0.95225044  0.66808040  0.46085584    -0.86000
O142        O  0.05529989  0.70950333  0.43194077    -0.86400
O143        O  0.04967434  0.80987791  0.42634296    -0.85800
O144        O  0.02863919  0.67040596  0.45828136    -0.86900
O145        O  0.02575833  0.84789773  0.45566011    -0.86100
O146        O  0.05546126  0.71073938  0.55508415    -0.86500
O147        O  0.92356951  0.70542243  0.43584140    -0.86200
O148        O  0.92457775  0.80758174  0.43292745    -0.85800
O149        O  0.04975649  0.81024719  0.55897108    -0.86200
O150        O  0.08823907  0.76477975  0.46437755    -0.86500
O151        O  0.01505399  0.75555236  0.39441180    -0.87900
Zr152      Zr  0.03525237  0.76004381  0.53755892     2.83100
Zr153      Zr  0.94447278  0.75689178  0.45031048     2.83500
Zr154      Zr  0.99135370  0.69474443  0.49420182     2.84100
Zr155      Zr  0.98947777  0.82195999  0.49351262     2.83400
Zr156      Zr  0.03378174  0.75943578  0.44815599     2.84200
O157        O  0.98877653  0.79009621  0.44868641    -1.08400
O158        O  0.03564434  0.72786247  0.49313643    -1.07900
C159        C  0.10269220  0.76740228  0.49076605     1.06700
C160        C  0.98815212  0.75374808  0.38083871     1.09300
C161        C  0.04879012  0.68159828  0.55124311     1.06900
C162        C  0.04205250  0.83874808  0.55361037     1.07200
C163        C  0.93015211  0.83661007  0.43984675     1.06800
C164        C  0.92989283  0.67661363  0.44239698     1.06400
C165        C  0.04986478  0.68036186  0.43862638     1.06800
C166        C  0.04443952  0.83860579  0.43347785     1.06300
H167        H  0.98947747  0.71281663  0.43100197     0.33000
O168        O  0.98961188  0.72619533  0.44913029    -1.29500
H169        H  0.05240026  0.80562584  0.49210834     0.33000
O170        O  0.03448816  0.79175781  0.49254946    -1.30900
O171        O  0.89818880  0.25598706  0.47612921    -0.86400
O172        O  0.02338812  0.26424063  0.60210685    -0.86500
O173        O  0.93641698  0.20591801  0.56679800    -0.88200
O174        O  0.93350079  0.30870828  0.56543444    -0.87000
O175        O  0.96146148  0.34754999  0.53996831    -0.86500
O176        O  0.96201495  0.16860540  0.53819217    -0.87900
O177        O  0.96988100  0.26248543  0.60158682    -0.86400
O178        O  0.89778619  0.25361883  0.53000087    -0.86000
Zr179      Zr  0.95231517  0.25799244  0.54747849     2.84300
O180        O  0.99711355  0.29044750  0.54806032    -1.08000
O181        O  0.95253094  0.22757599  0.50201200    -1.08700
C182        C  0.88400443  0.25304624  0.50303043     1.06700
C183        C  0.99619654  0.26555431  0.61592696     1.06700
C184        C  0.94293231  0.17719471  0.56022940     1.09700
C185        C  0.94026681  0.33785967  0.55972622     1.07400
H186        H  0.99756158  0.21406979  0.56556963     0.33000
O187        O  0.99736185  0.22718339  0.54710867    -1.28900
H188        H  0.93398558  0.30370420  0.50361944     0.32700
O189        O  0.95235375  0.29108586  0.50334726    -1.30600
O190        O  0.09653767  0.25634844  0.52841541    -0.86400
O191        O  0.97001357  0.26881987  0.40330489    -0.87900
O192        O  0.03560341  0.17158978  0.53560059    -0.86400
O193        O  0.03588083  0.34872865  0.53807176    -0.86500
O194        O  0.96376946  0.34977491  0.46751192    -0.86200
O195        O  0.96103160  0.17156785  0.46422266    -0.86000
O196        O  0.05748717  0.21192833  0.43512953    -0.86400
O197        O  0.06145554  0.31149778  0.44036805    -0.85800
O198        O  0.03277580  0.17253646  0.46301768    -0.86900
O199        O  0.03278752  0.34873906  0.46592659    -0.86100
O200        O  0.06123178  0.20984140  0.56376394    -0.86500
O201        O  0.93567554  0.21004026  0.43701377    -0.86200
O202        O  0.93582628  0.31247518  0.44103932    -0.85800
O203        O  0.06258785  0.31062794  0.56445518    -0.86200
O204        O  0.09564175  0.25462997  0.47444170    -0.86500
O205        O  0.02360125  0.26946798  0.40285179    -0.87900
Zr206      Zr  0.04206914  0.26006911  0.54720118     2.83100
Zr207      Zr  0.95248949  0.26059599  0.45782112     2.83500
Zr208      Zr  0.99716164  0.19641014  0.50126257     2.84100
Zr209      Zr  0.99788765  0.32285810  0.50375721     2.83400
Zr210      Zr  0.04155010  0.26110991  0.45709437     2.84200
O211        O  0.99737871  0.29224109  0.45859249    -1.08400
O212        O  0.04138946  0.22922462  0.50178945    -1.07900
C213        C  0.10984932  0.25331472  0.50113206     1.06700
C214        C  0.99683695  0.27235214  0.38914843     1.09300
C215        C  0.05590668  0.18119428  0.55597314     1.06900
C216        C  0.05678859  0.33943244  0.55766647     1.07200
C217        C  0.94341296  0.34127808  0.44697371     1.06800
C218        C  0.94188890  0.18109155  0.44293312     1.06400
C219        C  0.05195437  0.18284044  0.44144907     1.06800
C220        C  0.05400738  0.33991742  0.44621900     1.06300
H221        H  0.99673688  0.21691628  0.43742119     0.33000
O222        O  0.99680957  0.22896867  0.45640850    -1.29500
H223        H  0.06171725  0.30502478  0.50214595     0.33000
O224        O  0.04288839  0.29213217  0.50242091    -1.30900
C225        C  0.80427576  0.50971751  0.64925463    -0.02400
C226        C  0.18175940  0.51867390  0.65519517    -0.02400
C227        C  0.84002416  0.01114626  0.30978419    -0.02400
C228        C  0.83556429  0.00189007  0.68840375    -0.02400
C229        C  0.80478695  0.49894959  0.33821769    -0.02400
C230        C  0.18430635  0.51095944  0.34340008    -0.02400
C231        C  0.14746535  0.01639779  0.30588975    -0.02400
C232        C  0.14517783  0.01027971  0.68144538    -0.02400
O233        O  0.73641812  0.61181362  0.96817778    -0.86400
O234        O  0.74900629  0.48274552  0.09078192    -0.86500
O235        O  0.69065908  0.56955283  0.05922770    -0.88200
O236        O  0.79273770  0.57381030  0.05674854    -0.87000
O237        O  0.83098292  0.54960619  0.02773254    -0.86500
O238        O  0.65191753  0.54426949  0.03219870    -0.87900
O239        O  0.74569510  0.53623874  0.09263979    -0.86400
O240        O  0.73556165  0.60994898  0.02212527    -0.86000
Zr241      Zr  0.74176543  0.55532176  0.03853795     2.84300
O242        O  0.77440973  0.51208603  0.03586499    -1.08000
O243        O  0.70907040  0.55499167  0.99487016    -1.08700
C244        C  0.73399341  0.62466114  0.99553403     1.06700
C245        C  0.74908948  0.50905086  0.10553536     1.06700
C246        C  0.66160436  0.56371391  0.05338060     1.09700
C247        C  0.82159852  0.56827682  0.04961434     1.07400
H248        H  0.69879353  0.50868442  0.05798592     0.33000
O249        O  0.71102593  0.50954621  0.03871436    -1.28900
H250        H  0.78569936  0.57720980  0.99322449     0.32700
O251        O  0.77331989  0.55817086  0.99309445    -1.30600
O252        O  0.74028239  0.41260054  0.01774848    -0.86400
O253        O  0.74345217  0.54062708  0.89484235    -0.87900
O254        O  0.65483420  0.47142845  0.03326541    -0.86400
O255        O  0.83279917  0.47939035  0.02769092    -0.86500
O256        O  0.82915400  0.55213426  0.95294146    -0.86200
O257        O  0.65194532  0.54599388  0.95921710    -0.86000
O258        O  0.69106000  0.44942039  0.92885810    -0.86400
O259        O  0.79117844  0.45144948  0.92680746    -0.85800
O260        O  0.65243187  0.47402234  0.95695374    -0.86900
O261        O  0.82992884  0.47897141  0.95219553    -0.86100
O262        O  0.69508343  0.44753534  0.05920777    -0.86500
O263        O  0.68967072  0.57426040  0.93193165    -0.86200
O264        O  0.78969454  0.58006034  0.93018927    -0.85800
O265        O  0.79524392  0.44925419  0.05318614    -0.86200
O266        O  0.73781665  0.41365281  0.96411821    -0.86500
O267        O  0.74169411  0.48686839  0.89385471    -0.87900
Zr268      Zr  0.74401218  0.46636309  0.03640837     2.83100
Zr269      Zr  0.74040268  0.55777919  0.94948676     2.83500
Zr270      Zr  0.67776609  0.50928089  0.99496773     2.84100
Zr271      Zr  0.80576472  0.51412063  0.99053094     2.83400
Zr272      Zr  0.74129292  0.46837194  0.94775097     2.84200
O273        O  0.77244782  0.51401949  0.94728579    -1.08400
O274        O  0.71042245  0.46578322  0.99330595    -1.07900
C275        C  0.73702097  0.39917865  0.99086443     1.06700
C276        C  0.74357576  0.51400284  0.88057779     1.09300
C277        C  0.66589009  0.45245905  0.05420136     1.06900
C278        C  0.82387141  0.45777547  0.04753081     1.07200
C279        C  0.81877856  0.57369808  0.93435901     1.06800
C280        C  0.66104146  0.56702869  0.93885190     1.06400
C281        C  0.66217873  0.45504048  0.93544304     1.06800
C282        C  0.82011756  0.45829505  0.93226769     1.06300
H283        H  0.69607970  0.51218060  0.93087054     0.33000
O284        O  0.70906953  0.51209544  0.94924181    -1.29500
H285        H  0.78805308  0.44964820  0.99012284     0.33000
O286        O  0.77505519  0.46782116  0.99082199    -1.30900
O287        O  0.24825794  0.60778019  0.97698686    -0.86400
O288        O  0.23951574  0.47311790  0.09614416    -0.86500
O289        O  0.19733151  0.56954638  0.06616321    -0.88200
O290        O  0.29700590  0.56565524  0.06750363    -0.87000
O291        O  0.33498606  0.54175964  0.03834273    -0.86500
O292        O  0.15763216  0.54527061  0.03929639    -0.87900
O293        O  0.24400757  0.52661937  0.10014730    -0.84000
O294        O  0.25068328  0.60459488  0.03085799    -0.86000
Zr295      Zr  0.24634890  0.54942823  0.04686042     2.84300
O296        O  0.27623136  0.50432062  0.04384009    -1.08000
O297        O  0.21412654  0.55337416  0.00263253    -1.08700
C298        C  0.25074184  0.61991749  0.00451206     1.06700
C299        C  0.24074233  0.49872371  0.11199930     1.06700
C300        C  0.16814580  0.56481691  0.06008033     1.09700
C301        C  0.32595359  0.56022450  0.06067274     1.07400
H302        H  0.19925654  0.50457681  0.06281640     0.33000
O303        O  0.21246202  0.50567767  0.04435380    -1.28900
H304        H  0.29163058  0.57064558  0.00227707     0.32700
O305        O  0.27797806  0.55242693  0.00163163    -1.30600
O306        O  0.24338530  0.40783786  0.01813333    -0.86400
O307        O  0.24062570  0.54087928  0.90198186    -0.87900
O308        O  0.15330585  0.46967514  0.03283885    -0.86400
O309        O  0.33214104  0.46958899  0.03464969    -0.86500
O310        O  0.33468704  0.54447949  0.96206756    -0.86200
O311        O  0.15661770  0.54728469  0.96380702    -0.86000
O312        O  0.19387140  0.44831823  0.93548565    -0.86400
O313        O  0.29466059  0.44993408  0.93250743    -0.85800
O314        O  0.15535326  0.47458600  0.96221011    -0.86900
O315        O  0.33387647  0.47310304  0.96133701    -0.86100
O316        O  0.19082205  0.43961723  0.05582779    -0.86500
O317        O  0.19626148  0.57448230  0.93890874    -0.86200
O318        O  0.29617913  0.57082299  0.93629875    -0.85800
O319        O  0.29246900  0.44233634  0.06015479    -0.86200
O320        O  0.24429697  0.41219653  0.96461016    -0.86500
O321        O  0.24157854  0.48739869  0.89834642    -0.87900
Zr322      Zr  0.24256820  0.46044707  0.04067689     2.83100
Zr323      Zr  0.24571104  0.55481806  0.95732248     2.83500
Zr324      Zr  0.18051986  0.50952291  0.00014794     2.84100
Zr325      Zr  0.30886653  0.50788369  0.99924064     2.83400
Zr326      Zr  0.24438397  0.46737800  0.95208062     2.84200
O327        O  0.27758253  0.51107519  0.95414584    -1.08400
O328        O  0.21141620  0.46463472  0.99636636    -1.07900
C329        C  0.24436919  0.39604542  0.99017753     1.06700
C330        C  0.23924514  0.51507874  0.88635121     1.09300
C331        C  0.16197827  0.44649112  0.05031133     1.06900
C332        C  0.32163755  0.44884529  0.05455826     1.07200
C333        C  0.32506473  0.56432112  0.94130131     1.06800
C334        C  0.16699917  0.56803937  0.94375769     1.06400
C335        C  0.16511855  0.45427384  0.94204979     1.06800
C336        C  0.32359826  0.45460554  0.93966692     1.06300
H337        H  0.19959961  0.51216068  0.93694394     0.33000
O338        O  0.21267068  0.51120764  0.95522909    -1.29500
H339        H  0.28821260  0.44516713  0.99550446     0.33000
O340        O  0.27572481  0.46358994  0.99658595    -1.30900
C341        C  0.00180859  0.70436506  0.84462253    -0.02400
C342        C  0.99176970  0.32345442  0.84984058    -0.02400
C343        C  0.49200230  0.66581231  0.80716315    -0.02400
C344        C  0.49626483  0.66944429  0.19094824    -0.02400
C345        C  0.98471064  0.31754568  0.15151754    -0.02400
C346        C  0.99807179  0.69508327  0.14827150    -0.02400
C347        C  0.48870980  0.35692975  0.80506626    -0.02400
C348        C  0.49401990  0.36064609  0.18878351    -0.02400
O349        O  0.56137907  0.44690429  0.54190328    -0.86400
O350        O  0.46889903  0.50369491  0.39988981    -0.86500
O351        O  0.48677689  0.41521653  0.46640604    -0.88200
O352        O  0.56790123  0.47348861  0.43578592    -0.87000
O353        O  0.58100746  0.52465187  0.44443843    -0.86500
O354        O  0.44281599  0.42475925  0.49615773    -0.87900
O355        O  0.50216460  0.46337510  0.41078749    -0.86400
O356        O  0.55531282  0.43103903  0.49096448    -0.86000
Zr357      Zr  0.51806815  0.46452126  0.46465249     2.84300
O358        O  0.51480016  0.51662086  0.44738551    -1.08000
O359        O  0.49777296  0.46011248  0.51567141    -1.08700
C360        C  0.56775350  0.42889294  0.51844843     1.06700
C361        C  0.48420401  0.47884651  0.39250499     1.06700
C362        C  0.45990745  0.40720474  0.47881673     1.09700
C363        C  0.58630475  0.49776176  0.43245116     1.07400
H364        H  0.45367682  0.46835369  0.45107689     0.33000
O365        O  0.46595828  0.48139244  0.46477059    -1.28900
H366        H  0.56893911  0.49032479  0.49672811     0.32700
O367        O  0.54751432  0.49672058  0.49737453    -1.30600
O368        O  0.43529008  0.58397667  0.45544535    -0.86400
O369        O  0.52290742  0.52271114  0.59697680    -0.87900
O370        O  0.39930635  0.47955118  0.48239333    -0.86400
O371        O  0.53964435  0.57810384  0.43051189    -0.86500
O372        O  0.59179915  0.54550891  0.51188222    -0.86200
O373        O  0.45036783  0.44634835  0.56432099    -0.86000
O374        O  0.42164952  0.55207453  0.55890001    -0.86400
O375        O  0.50637892  0.60837780  0.53480921    -0.85800
O376        O  0.40721838  0.50150570  0.54828115    -0.86900
O377        O  0.54834672  0.60039274  0.50168619    -0.86100
O378        O  0.41030427  0.51382362  0.44187267    -0.86500
O379        O  0.50084207  0.45372825  0.58137370    -0.86200
O380        O  0.58044770  0.51235092  0.55340602    -0.85800
O381        O  0.48991542  0.56885367  0.41226289    -0.86200
O382        O  0.44249187  0.59900365  0.50667235    -0.86500
O383        O  0.48874957  0.56251591  0.58717277    -0.87900
Zr384      Zr  0.46303818  0.53390448  0.44840797     2.83100
Zr385      Zr  0.52756549  0.49233415  0.54853172     2.83500
Zr386      Zr  0.44595606  0.47732640  0.51583951     2.84100
Zr387      Zr  0.54456720  0.54851048  0.48008692     2.83400
Zr388      Zr  0.47324376  0.56060674  0.53304599     2.84200
O389        O  0.52528273  0.54444269  0.53169229    -1.08400
O390        O  0.44282296  0.52956184  0.49953111    -1.07900
C391        C  0.43223545  0.60329813  0.47869481     1.06700
C392        C  0.50673510  0.54671766  0.60516568     1.09300
C393        C  0.39211774  0.49448507  0.45694147     1.06900
C394        C  0.51744809  0.58136700  0.41028045     1.07200
C395        C  0.59884941  0.53052183  0.53723873     1.06800
C396        C  0.47318966  0.44127724  0.58335694     1.06400
C397        C  0.40242849  0.52831251  0.56084406     1.06800
C398        C  0.53222612  0.61704218  0.52083367     1.06300
H399        H  0.46694411  0.50659409  0.57092490     0.33000
O400        O  0.47542031  0.50851152  0.54992078    -1.29500
H401        H  0.49291778  0.58706883  0.47459237     0.33000
O402        O  0.49306964  0.56546801  0.48160792    -1.30900
O403        O  0.06391305  0.95053049  0.04137211    -0.86400
O404        O  0.00988855  0.04175300  0.89865786    -0.86500
O405        O  0.04178822  0.94185269  0.93801869    -0.88200
O406        O  0.09267228  0.02863096  0.96899252    -0.87000
O407        O  0.07897770  0.06894898  0.00151462    -0.86500
O408        O  0.99060796  0.92469834  0.94283456    -0.87900
O409        O  0.05052354  0.00906321  0.90996558    -0.86400
O410        O  0.08297178  0.96072662  0.99161401    -0.86000
Zr411      Zr  0.04640446  0.99316616  0.96444024     2.84300
O412        O  0.02753814  0.04435864  0.96530598    -1.08000
O413        O  0.01324967  0.96020415  0.99427396    -1.08700
C414        C  0.08504062  0.94869507  0.01928542     1.06700
C415        C  0.03462667  0.02630391  0.89120958     1.06700
C416        C  0.01897793  0.92206373  0.93316487     1.09700
C417        C  0.09883250  0.05393830  0.98471333     1.07400
H418        H  0.99647366  0.98510603  0.92359906     0.33000
O419        O  0.99559559  0.99285797  0.94483118    -1.28900
H420        H  0.06629102  0.01077761  0.02516815     0.32700
O421        O  0.04542041  0.01047382  0.01653223    -1.30600
O422        O  0.92614215  0.06991296  0.94860414    -0.86400
O423        O  0.97772069  0.97705922  0.09245179    -0.87900
O424        O  0.93968583  0.96525445  0.92120518    -0.86400
O425        O  0.01988646  0.10995466  0.98807325    -0.86500
O426        O  0.04895705  0.05504263  0.07009570    -0.86200
O427        O  0.96805728  0.91078513  0.00473897    -0.86000
O428        O  0.89509387  0.99610928  0.02291226    -0.86400
O429        O  0.94672804  0.08022771  0.05634143    -0.85800
O430        O  0.90822647  0.95458315  0.99154088    -0.86900
O431        O  0.99713579  0.09771616  0.04880411    -0.86100
O432        O  0.94782291  0.01625050  0.90571609    -0.86500
O433        O  0.99914464  0.92189600  0.04694898    -0.86200
O434        O  0.04300337  0.00356508  0.08515714    -0.85800
O435        O  0.99202422  0.09813248  0.94390659    -0.86200
O436        O  0.90740687  0.06257961  0.99901981    -0.86500
O437        O  0.93691492  0.00951358  0.08107587    -0.87900
Zr438      Zr  0.97648699  0.04358503  0.94567676     2.83100
Zr439      Zr  0.01265966  0.97692718  0.04615541     2.83500
Zr440      Zr  0.96221664  0.96030311  0.97468676     2.84100
Zr441      Zr  0.02536217  0.06100411  0.01771028     2.83400
Zr442      Zr  0.94238063  0.02919394  0.02796832     2.84200
O443        O  0.99313762  0.02795948  0.04820261    -1.08400
O444        O  0.94285922  0.01123981  0.97582190    -1.07900
C445        C  0.90592445  0.07398649  0.97094873     1.06700
C446        C  0.95187991  0.99101781  0.09943011     1.09300
C447        C  0.93851810  0.98794012  0.90077216     1.06900
C448        C  0.00608172  0.11756102  0.96228818     1.07200
C449        C  0.05277056  0.03180089  0.08932428     1.06800
C450        C  0.98338140  0.90278738  0.02967979     1.06400
C451        C  0.88888829  0.97008505  0.00862218     1.06800
C452        C  0.96939070  0.10063714  0.06005535     1.06300
H453        H  0.94813778  0.96385572  0.03913750     0.33000
O454        O  0.96138685  0.97768457  0.02673316    -1.29500
H455        H  0.96663028  0.08216523  0.99765318     0.33000
O456        O  0.97494466  0.06129802  0.99732700    -1.30900
C457        C  0.49259455  0.38301329  0.21767735    -0.11800
C458        C  0.46528708  0.38355445  0.23750718     0.03600
C459        C  0.46349362  0.40425661  0.26249789    -0.12400
C460        C  0.48870251  0.42367008  0.27033483     0.18500
C461        C  0.51586695  0.42363812  0.25158934    -0.09400
C462        C  0.51713195  0.40458305  0.22504134    -0.02400
H463        H  0.44273767  0.40379934  0.27740325     0.05000
C464        C  0.48727802  0.43942010  0.30095957     0.20500
H465        H  0.53763319  0.40758251  0.21048406     0.10200
C466        C  0.48292681  0.42033231  0.32751390    -0.15800
C467        C  0.47913107  0.43323030  0.35705859     0.03200
C468        C  0.48142257  0.46593385  0.36083597    -0.11100
C469        C  0.48479665  0.48533871  0.33423956    -0.01100
C470        C  0.48714130  0.47223400  0.30418593    -0.06300
H471        H  0.48179143  0.39509565  0.32510520     0.06200
H472        H  0.48616983  0.51052554  0.33687117     0.09600
Br473      Br  0.55283568  0.44726292  0.26237227    -0.06000
Br474      Br  0.43003234  0.35509167  0.23531485    -0.02900
Br475      Br  0.46923847  0.40484416  0.39108608    -0.00100
Br476      Br  0.48854086  0.49976378  0.26841896    -0.04400
C477        C  0.46802156  0.42072617  0.61075808    -0.11800
C478        C  0.48817583  0.39568969  0.61582186     0.03600
C479        C  0.49370117  0.38519604  0.64641054    -0.12400
C480        C  0.47605858  0.39642300  0.67199718     0.18500
C481        C  0.45203113  0.41808766  0.66570105    -0.09400
C482        C  0.44904429  0.43088333  0.63550287    -0.02400
H483        H  0.51212613  0.36854309  0.65001646     0.05000
C484        C  0.48356211  0.38641926  0.70483431     0.20500
H485        H  0.43282524  0.44973467  0.63166210     0.10200
C486        C  0.48700045  0.40910816  0.72825151    -0.15800
C487        C  0.49002085  0.40093433  0.76010470     0.03200
C488        C  0.49079457  0.36877464  0.76966061    -0.11100
C489        C  0.49434028  0.34713601  0.74460931    -0.01100
C490        C  0.48843291  0.35502217  0.71332138    -0.06300
H491        H  0.48615960  0.43364399  0.72179757     0.06200
H492        H  0.50053739  0.32313623  0.74870931     0.09600
Br493      Br  0.42233554  0.43112133  0.69692827    -0.06000
Br494      Br  0.50652482  0.37421445  0.58093766    -0.02900
Br495      Br  0.49234769  0.43616714  0.78733284    -0.00100
Br496      Br  0.48428765  0.32080507  0.68446859    -0.04400
C497        C  0.98448442  0.86934614  0.03994598    -0.11800
C498        C  0.95860192  0.84835222  0.03896112     0.03600
C499        C  0.96012040  0.81905562  0.05417686    -0.12400
C500        C  0.98727307  0.81004448  0.07004672     0.18500
C501        C  0.01384136  0.82984567  0.06880929    -0.09400
C502        C  0.01225448  0.85908145  0.05408537    -0.02400
H503        H  0.93968490  0.80370582  0.05456117     0.05000
C504        C  0.98725537  0.78097667  0.08939861     0.20500
H505        H  0.03281078  0.87427523  0.05439119     0.10200
C506        C  0.99051305  0.75190283  0.07509493    -0.15800
C507        C  0.99344765  0.72435565  0.09298097     0.03200
C508        C  0.99335545  0.72518616  0.12673659    -0.11100
C509        C  0.98652025  0.75475725  0.14018846    -0.01100
C510        C  0.98498690  0.78219015  0.12224088    -0.06300
H511        H  0.99163263  0.75073823  0.04967128     0.06200
H512        H  0.98241065  0.75753831  0.16500723     0.09600
Br513      Br  0.05263379  0.81820711  0.08771844    -0.06000
Br514      Br  0.92005289  0.85899106  0.01926542    -0.02900
Br515      Br  0.99841274  0.68740945  0.06821968    -0.00100
Br516      Br  0.98042022  0.82114979  0.14396619    -0.04400
C517        C  0.97302504  0.28547678  0.13689765    -0.11800
C518        C  0.96651541  0.28115939  0.10411005     0.03600
C519        C  0.95913792  0.25116887  0.09232800    -0.12400
C520        C  0.95607834  0.22514258  0.11228970     0.18500
C521        C  0.95772027  0.22982866  0.14471678    -0.09400
C522        C  0.96558173  0.25930115  0.15661873    -0.02400
H523        H  0.95738024  0.24785509  0.06717323     0.05000
C524        C  0.95756967  0.19289707  0.09942134     0.20500
H525        H  0.96546060  0.26099471  0.18184998     0.10200
C526        C  0.98632994  0.17794766  0.10102715    -0.15800
C527        C  0.98990486  0.14736594  0.09051952     0.03200
C528        C  0.96426398  0.13076160  0.07697303    -0.11100
C529        C  0.93501793  0.14556607  0.07611943    -0.01100
C530        C  0.93154242  0.17634138  0.08739847    -0.06300
H531        H  0.00629979  0.19023903  0.11091965     0.06200
H532        H  0.91508013  0.13362672  0.06583263     0.09600
Br533      Br  0.95004718  0.19597986  0.17378757    -0.06000
Br534      Br  0.97017333  0.31329788  0.07242538    -0.02900
Br535      Br  0.03085278  0.13017120  0.09657313    -0.00100
Br536      Br  0.89105221  0.19484597  0.08636880    -0.04400
C537        C  0.52327372  0.59980522  0.38155684    -0.11800
C538        C  0.50818416  0.62852025  0.37705219     0.03600
C539        C  0.50547512  0.64099975  0.34671095    -0.12400
C540        C  0.51740437  0.62493300  0.32067770     0.18500
C541        C  0.53409035  0.59720746  0.32536850    -0.09400
C542        C  0.53687305  0.58479276  0.35569643    -0.02400
H543        H  0.49293319  0.66256436  0.34327092     0.05000
C544        C  0.51116287  0.63654935  0.28864768     0.20500
H545        H  0.54782465  0.56230280  0.35881367     0.10200
C546        C  0.53222156  0.65758148  0.27456455    -0.15800
C547        C  0.52824953  0.66780127  0.24362798     0.03200
C548        C  0.50174484  0.65741497  0.22558948    -0.11100
C549        C  0.48040459  0.63646077  0.24096352    -0.01100
C550        C  0.48518768  0.62585519  0.27168652    -0.06300
H551        H  0.55255413  0.66543241  0.28756401     0.06200
H552        H  0.45913422  0.62857820  0.22991624     0.09600
Br553      Br  0.55151324  0.57458913  0.29069318    -0.06000
Br554      Br  0.48929003  0.65024941  0.41155415    -0.02900
Br555      Br  0.56249364  0.69347916  0.22797894    -0.00100
Br556      Br  0.45559634  0.59642301  0.28964598    -0.04400
C557        C  0.49957254  0.64571645  0.77743083    -0.11800
C558        C  0.50178619  0.61223631  0.77896637     0.03600
C559        C  0.50796658  0.59500210  0.75190381    -0.12400
C560        C  0.51133999  0.60961993  0.72276175     0.18500
C561        C  0.51035492  0.64223551  0.72062653    -0.09400
C562        C  0.50601224  0.65989364  0.74770419    -0.02400
H563        H  0.50833335  0.56967168  0.75327184     0.05000
C564        C  0.51133068  0.59028665  0.69443133     0.20500
H565        H  0.50780988  0.68488615  0.74468478     0.10200
C566        C  0.48237425  0.58066301  0.68255199    -0.15800
C567        C  0.48069487  0.56445910  0.65436033     0.03200
C568        C  0.50842150  0.55772885  0.63761415    -0.11100
C569        C  0.53757187  0.56579725  0.65042145    -0.01100
C570        C  0.53915900  0.58210426  0.67880190    -0.06300
H571        H  0.46095362  0.58648673  0.69492457     0.06200
H572        H  0.55896348  0.56083852  0.63761150     0.09600
Br573      Br  0.51271598  0.66360259  0.68081010    -0.06000
Br574      Br  0.49339426  0.58658522  0.81544938    -0.02900
Br575      Br  0.43987744  0.55221921  0.63974841    -0.00100
Br576      Br  0.57942450  0.59376402  0.69487011    -0.04400
C577        C  0.99383044  0.29587071  0.87401040    -0.11800
C578        C  0.02115131  0.27681426  0.87574067     0.03600
C579        C  0.02207053  0.25150162  0.89654692    -0.12400
C580        C  0.99696074  0.24430595  0.91660539     0.18500
C581        C  0.97169121  0.26479576  0.91815419    -0.09400
C582        C  0.97019617  0.28995746  0.89706704    -0.02400
H583        H  0.04189941  0.23600093  0.89563462     0.05000
C584        C  0.99661072  0.21346272  0.93253673     0.20500
H585        H  0.95048031  0.30509446  0.89973812     0.10200
C586        C  0.02139226  0.20551498  0.95241482    -0.15800
C587        C  0.02516320  0.17464071  0.96293418     0.03200
C588        C  0.00374208  0.15107165  0.95341857    -0.11100
C589        C  0.97835131  0.15958730  0.93451365    -0.01100
C590        C  0.97488315  0.19009074  0.92374838    -0.06300
H591        H  0.03861922  0.22321878  0.95871312     0.06200
H592        H  0.96119127  0.14219831  0.92727123     0.09600
Br593      Br  0.93899086  0.25972626  0.94917085    -0.06000
Br594      Br  0.05685473  0.27951634  0.84785521    -0.02900
Br595      Br  0.06123075  0.16617597  0.98800205    -0.00100
Br596      Br  0.94173921  0.19723819  0.89444908    -0.04400
C597        C  0.02456016  0.89280079  0.91647217    -0.11800
C598        C  0.00456812  0.88408846  0.89171951     0.03600
C599        C  0.00190166  0.85282196  0.88292070    -0.12400
C600        C  0.01858454  0.82973994  0.89871352     0.18500
C601        C  0.03976814  0.83849887  0.92242570    -0.09400
C602        C  0.04266997  0.86996787  0.93110678    -0.02400
H603        H  0.98617365  0.84634552  0.86412762     0.05000
C604        C  0.01470682  0.79700532  0.88852144     0.20500
H605        H  0.05721102  0.87621527  0.95090942     0.10200
C606        C  0.03881552  0.78381687  0.87117192    -0.15800
C607        C  0.03509156  0.75467706  0.85709532     0.03200
C608        C  0.00643905  0.73688878  0.86096924    -0.11100
C609        C  0.98280204  0.75029089  0.87994681    -0.01100
C610        C  0.98645343  0.78016870  0.89286109    -0.06300
H611        H  0.06033692  0.79713184  0.86723023     0.06200
H612        H  0.96122336  0.73788067  0.88520009     0.09600
Br613      Br  0.06307998  0.80809331  0.94534691    -0.06000
Br614      Br  0.97884785  0.91384473  0.87054581    -0.02900
Br615      Br  0.06978273  0.74338803  0.83039814    -0.00100
Br616      Br  0.95198041  0.79719675  0.91603337    -0.04400
C617        C  0.14180845  0.43613408  0.92464832    -0.11800
C618        C  0.14314746  0.40321099  0.92352952     0.03600
C619        C  0.12133611  0.38649354  0.90592592    -0.12400
C620        C  0.09817311  0.40210855  0.88930686     0.18500
C621        C  0.09719590  0.43498070  0.88978640    -0.09400
C622        C  0.11896797  0.45182479  0.90751338    -0.02400
H623        H  0.12149019  0.36113531  0.90637390     0.05000
C624        C  0.07172003  0.38354562  0.87751060     0.20500
H625        H  0.11816102  0.47715085  0.90783883     0.10200
C626        C  0.04670158  0.37825757  0.89801905    -0.15800
C627        C  0.02158329  0.35908862  0.88981242     0.03200
C628        C  0.02042267  0.34478075  0.85935748    -0.11100
C629        C  0.04625559  0.35090507  0.83878805    -0.01100
C630        C  0.07184193  0.36949916  0.84791026    -0.06300
H631        H  0.04697677  0.38899733  0.92105777     0.06200
H632        H  0.04791044  0.34004381  0.81604154     0.09600
Br633      Br  0.06604197  0.45749659  0.86721945    -0.06000
Br634      Br  0.17240173  0.37967396  0.94768185    -0.02900
Br635      Br  0.98965163  0.35630226  0.92205742    -0.00100
Br636      Br  0.10705878  0.37419681  0.81987338    -0.04400
C637        C  0.01801655  0.32964332  0.13975276    -0.11800
C638        C  0.03760384  0.31709848  0.11539760     0.03600
C639        C  0.06169402  0.33583589  0.10184206    -0.12400
C640        C  0.06876400  0.36587277  0.11301625     0.18500
C641        C  0.05275062  0.37647440  0.13972768    -0.09400
C642        C  0.02863173  0.35826491  0.15320227    -0.02400
H643        H  0.07546103  0.32669317  0.08253797     0.05000
C644        C  0.09291161  0.38584885  0.09670484     0.20500
H645        H  0.01566331  0.36845787  0.17247330     0.10200
C646        C  0.08608515  0.39964124  0.06757122    -0.15800
C647        C  0.10784215  0.41958977  0.05207004     0.03200
C648        C  0.13735728  0.42611366  0.06575928    -0.11100
C649        C  0.14411028  0.41178953  0.09479393    -0.01100
C650        C  0.12234982  0.39191584  0.11014094    -0.06300
H651        H  0.06359587  0.39493799  0.05686677     0.06200
H652        H  0.16649837  0.41615416  0.10582046     0.09600
Br653      Br  0.06069449  0.41720552  0.15696192    -0.06000
Br654      Br  0.03772456  0.27450220  0.10079747    -0.02900
Br655      Br  0.09621621  0.43554342  0.01158634    -0.00100
Br656      Br  0.13409467  0.37305837  0.14924143    -0.04400
C657        C  0.14566484  0.58388852  0.07860790    -0.11800
C658        C  0.11581190  0.59189339  0.06729325     0.03600
C659        C  0.09697718  0.61212126  0.08457727    -0.12400
C660        C  0.10725346  0.62534565  0.11283381     0.18500
C661        C  0.13664496  0.61731607  0.12451232    -0.09400
C662        C  0.15545230  0.59662371  0.10759518    -0.02400
H663        H  0.07441397  0.61849077  0.07530131     0.05000
C664        C  0.08677428  0.64817536  0.12856562     0.20500
H665        H  0.17823077  0.59109484  0.11689944     0.10200
C666        C  0.06925798  0.63911238  0.15509489    -0.15800
C667        C  0.04183882  0.65495091  0.16342858     0.03200
C668        C  0.03127460  0.68050466  0.14437079    -0.11100
C669        C  0.05307021  0.69262148  0.12189574    -0.01100
C670        C  0.08000279  0.67647964  0.11363105    -0.06300
H671        H  0.07496814  0.61765164  0.16729631     0.06200
H672        H  0.04925883  0.71429816  0.10959877     0.09600
Br673      Br  0.15278355  0.63576060  0.16214361    -0.06000
Br674      Br  0.10005276  0.57890089  0.02724619    -0.02900
Br675      Br  0.01803962  0.63537777  0.19697968    -0.00100
Br676      Br  0.10630346  0.69308506  0.08052728    -0.04400
C677        C  0.14438429  0.58629402  0.92447588    -0.11800
C678        C  0.11189611  0.57912683  0.92299390     0.03600
C679        C  0.09216026  0.59838202  0.90560320    -0.12400
C680        C  0.10384419  0.62458658  0.88900174     0.18500
C681        C  0.13615861  0.63105774  0.88911015    -0.09400
C682        C  0.15600831  0.61201372  0.90651525    -0.02400
H683        H  0.06720790  0.59333070  0.90564307     0.05000
C684        C  0.08118746  0.64711446  0.87622813     0.20500
H685        H  0.18071082  0.61810624  0.90653613     0.10200
C686        C  0.06329654  0.66367805  0.89776998    -0.15800
C687        C  0.03864313  0.68228551  0.88822078     0.03200
C688        C  0.03116328  0.68542424  0.85547465    -0.11100
C689        C  0.05136493  0.67032698  0.83388186    -0.01100
C690        C  0.07545792  0.65080844  0.84398457    -0.06300
H691        H  0.06772631  0.66090248  0.92267660     0.06200
H692        H  0.04872900  0.67314957  0.80889958     0.09600
Br693      Br  0.15407501  0.66679702  0.86763689    -0.06000
Br694      Br  0.09221835  0.54362046  0.94339705    -0.02900
Br695      Br  0.01449878  0.69860442  0.92281088    -0.00100
Br696      Br  0.09872401  0.62834501  0.81292985    -0.04400
C697        C  0.45706874  0.36358886  0.82218851    -0.11800
C698        C  0.42936049  0.37601949  0.80880372     0.03600
C699        C  0.40490640  0.38548835  0.82855735    -0.12400
C700        C  0.40706144  0.38332322  0.86132117     0.18500
C701        C  0.43107068  0.36492313  0.87398993    -0.09400
C702        C  0.45476138  0.35407600  0.85414169    -0.02400
H703        H  0.38442416  0.39593020  0.81826957     0.05000
C704        C  0.38551758  0.40194874  0.88134936     0.20500
H705        H  0.47391005  0.34170897  0.86477589     0.10200
C706        C  0.36972495  0.38759856  0.90688603    -0.15800
C707        C  0.35101739  0.40497280  0.92724138     0.03200
C708        C  0.34641169  0.43692888  0.92132450    -0.11100
C709        C  0.36102726  0.45121533  0.89535196    -0.01100
C710        C  0.38083345  0.43431622  0.87565025    -0.06300
H711        H  0.37197106  0.36274828  0.91114789     0.06200
H712        H  0.35671536  0.47559522  0.89015259     0.09600
Br713      Br  0.43751403  0.35935600  0.91833429    -0.06000
Br714      Br  0.41937846  0.37740765  0.76494779    -0.02900
Br715      Br  0.33260650  0.38423076  0.96313189    -0.00100
Br716      Br  0.40091573  0.45757282  0.84201295    -0.04400
C717        C  0.34823880  0.58161379  0.92134151    -0.11800
C718        C  0.37715392  0.56889509  0.91176547     0.03600
C719        C  0.39698761  0.58602433  0.89143449    -0.12400
C720        C  0.38840966  0.61549931  0.88012433     0.18500
C721        C  0.35954515  0.62797815  0.88902048    -0.09400
C722        C  0.33991448  0.61125332  0.90964970    -0.02400
H723        H  0.41913406  0.57621416  0.88415681     0.05000
C724        C  0.41002042  0.63285738  0.85906554     0.20500
H725        H  0.31777876  0.62146387  0.91630049     0.10200
C726        C  0.41257508  0.62404495  0.82760232    -0.15800
C727        C  0.43595542  0.63707394  0.80808997     0.03200
C728        C  0.45894063  0.65767850  0.82128507    -0.11100
C729        C  0.45098885  0.67158129  0.85035841    -0.01100
C730        C  0.42832611  0.65789985  0.87007239    -0.06300
H731        H  0.39636876  0.60676855  0.81826715     0.06200
H732        H  0.46594257  0.68966591  0.86007159     0.09600
Br733      Br  0.34559475  0.66723275  0.87259347    -0.06000
Br734      Br  0.39022270  0.52773247  0.92349631    -0.02900
Br735      Br  0.43103809  0.62810995  0.76406812    -0.00100
Br736      Br  0.42668841  0.67089947  0.91314843    -0.04400
C737        C  0.46574618  0.65471241  0.17570120    -0.11800
C738        C  0.43972358  0.67091000  0.16214159     0.03600
C739        C  0.41596837  0.65409238  0.14647778    -0.12400
C740        C  0.41734216  0.62175366  0.14203632     0.18500
C741        C  0.44247371  0.60556808  0.15485585    -0.09400
C742        C  0.46571587  0.62168761  0.17146285    -0.02400
H743        H  0.39688776  0.66670411  0.13592515     0.05000
C744        C  0.39389702  0.60583880  0.12157330     0.20500
H745        H  0.48477250  0.60807484  0.18062044     0.10200
C746        C  0.40287474  0.59640446  0.09128090    -0.15800
C747        C  0.38150700  0.58176671  0.07093953     0.03200
C748        C  0.35008213  0.57618231  0.08076894    -0.11100
C749        C  0.34116697  0.58646346  0.11101620    -0.01100
C750        C  0.36266222  0.60077934  0.13133803    -0.06300
H751        H  0.42672492  0.60075397  0.08328080     0.06200
H752        H  0.31728655  0.58311005  0.11922166     0.09600
Br753      Br  0.44647618  0.56123512  0.14970835    -0.06000
Br754      Br  0.43451830  0.71551891  0.15825216    -0.02900
Br755      Br  0.39671004  0.57207265  0.02956417    -0.00100
Br756      Br  0.34853420  0.61200733  0.17265623    -0.04400
C757        C  0.46510816  0.37133976  0.16933980    -0.11800
C758        C  0.46331879  0.40283485  0.15759427     0.03600
C759        C  0.43790575  0.41212974  0.13976885    -0.12400
C760        C  0.41379165  0.39125815  0.13248477     0.18500
C761        C  0.41451472  0.36050465  0.14391582    -0.09400
C762        C  0.43943193  0.35096937  0.16259221    -0.02400
H763        H  0.43723587  0.43590849  0.13079888     0.05000
C764        C  0.38849228  0.40254156  0.11238870     0.20500
H765        H  0.43785936  0.32754088  0.17195468     0.10200
C766        C  0.39382087  0.40486298  0.07992113    -0.15800
C767        C  0.37233820  0.41967540  0.06050064     0.03200
C768        C  0.34462106  0.43186049  0.07357385    -0.11100
C769        C  0.33903502  0.42870920  0.10607168    -0.01100
C770        C  0.36099977  0.41471533  0.12553907    -0.06300
H771        H  0.41529766  0.39599536  0.06982789     0.06200
H772        H  0.31813202  0.43841245  0.11657103     0.09600
Br773      Br  0.38230906  0.33054002  0.13386285    -0.06000
Br774      Br  0.49510020  0.43496532  0.16189750    -0.02900
Br775      Br  0.38237887  0.42258516  0.01657732    -0.00100
Br776      Br  0.35375866  0.41478815  0.17012239    -0.04400
C777        C  0.64384816  0.43493344  0.07477611    -0.11800
C778        C  0.63724577  0.44514302  0.10551494     0.03600
C779        C  0.61776686  0.42701018  0.12543028    -0.12400
C780        C  0.60540833  0.39810782  0.11544232     0.18500
C781        C  0.61375846  0.38712813  0.08524905    -0.09400
C782        C  0.63236627  0.40574369  0.06508475    -0.02400
H783        H  0.61132821  0.43604102  0.14829836     0.05000
C784        C  0.57923341  0.38309476  0.13362210     0.20500
H785        H  0.63831808  0.39716983  0.04189818     0.10200
C786        C  0.55060643  0.37978545  0.11852056    -0.15800
C787        C  0.52406062  0.36830172  0.13411734     0.03200
C788        C  0.52427073  0.36408709  0.16758324    -0.11100
C789        C  0.55428990  0.36231691  0.18132267    -0.01100
C790        C  0.58141935  0.37281979  0.16505443    -0.06300
H791        H  0.54892239  0.38586425  0.09383277     0.06200
H792        H  0.55632087  0.35536312  0.20571921     0.09600
Br793      Br  0.60057526  0.34665146  0.07052477    -0.06000
Br794      Br  0.65383827  0.48407296  0.12081174    -0.02900
Br795      Br  0.49162311  0.35548750  0.10546136    -0.00100
Br796      Br  0.62054150  0.37314660  0.18675080    -0.04400
C797        C  0.63765097  0.58069920  0.07239177    -0.11800
C798        C  0.64568453  0.60515966  0.09360074     0.03600
C799        C  0.62227435  0.62023122  0.11059742    -0.12400
C800        C  0.59076881  0.61158880  0.10770320     0.18500
C801        C  0.58240060  0.58768519  0.08665919    -0.09400
C802        C  0.60566917  0.57257344  0.06920888    -0.02400
H803        H  0.62875713  0.63867958  0.12677137     0.05000
C804        C  0.56753974  0.62672465  0.12846571     0.20500
H805        H  0.59857944  0.55407740  0.05338265     0.10200
C806        C  0.54650958  0.64818181  0.11621432    -0.15800
C807        C  0.52481236  0.66340257  0.13563490     0.03200
C808        C  0.52356518  0.65740291  0.16883020    -0.11100
C809        C  0.54513890  0.63496211  0.18015381    -0.01100
C810        C  0.56703506  0.62057722  0.16077492    -0.06300
H811        H  0.54692853  0.65305775  0.09118621     0.06200
H812        H  0.54483244  0.62677346  0.20412279     0.09600
Br813      Br  0.53967698  0.57404771  0.08199750    -0.06000
Br814      Br  0.68756342  0.62055622  0.10120745    -0.02900
Br815      Br  0.49734366  0.69075040  0.11361607    -0.00100
Br816      Br  0.59501592  0.59128150  0.17964283    -0.04400
C817        C  0.63694527  0.58364033  0.92107480    -0.11800
C818        C  0.63894672  0.61627759  0.91548816     0.03600
C819        C  0.61595710  0.63093485  0.89786657    -0.12400
C820        C  0.59155874  0.61350175  0.88452990     0.18500
C821        C  0.59071162  0.58068094  0.88827883    -0.09400
C822        C  0.61277082  0.56614858  0.90721206    -0.02400
H823        H  0.61707782  0.65609449  0.89457350     0.05000
C824        C  0.56697934  0.62999182  0.86722334     0.20500
H825        H  0.61179327  0.54093707  0.91007014     0.10200
C826        C  0.57458042  0.64696353  0.83991027    -0.15800
C827        C  0.55128565  0.66083048  0.82175846     0.03200
C828        C  0.51895041  0.65716332  0.83035718    -0.11100
C829        C  0.51256984  0.64137879  0.85935354    -0.01100
C830        C  0.53591792  0.62885380  0.87779059    -0.06300
H831        H  0.59882936  0.64894216  0.83232140     0.06200
H832        H  0.48938413  0.63547479  0.86744413     0.09600
Br833      Br  0.56127084  0.55455659  0.86637967    -0.06000
Br834      Br  0.67207882  0.64240090  0.93135460    -0.02900
Br835      Br  0.56622904  0.68424244  0.78578238    -0.00100
Br836      Br  0.52358204  0.60951741  0.91707184    -0.04400
C837        C  0.63874551  0.43953373  0.91537084    -0.11800
C838        C  0.63424161  0.40678334  0.91553425     0.03600
C839        C  0.61358357  0.39276858  0.89410897    -0.12400
C840        C  0.59729553  0.41105764  0.87235885     0.18500
C841        C  0.60187254  0.44382238  0.87239092    -0.09400
C842        C  0.62251210  0.45774176  0.89366515    -0.02400
H843        H  0.60924782  0.36773969  0.89526428     0.05000
C844        C  0.57088682  0.39695089  0.85470014     0.20500
H845        H  0.62606520  0.48290518  0.89312590     0.10200
C846        C  0.54099113  0.40332190  0.86562530    -0.15800
C847        C  0.51442559  0.39446422  0.84902690     0.03200
C848        C  0.51682147  0.37342825  0.82259995    -0.11100
C849        C  0.54764948  0.36855147  0.81094207    -0.01100
C850        C  0.57432906  0.38043788  0.82644239    -0.06300
H851        H  0.53851241  0.41792180  0.88626094     0.06200
H852        H  0.55102750  0.35473851  0.78995928     0.09600
Br853      Br  0.57946551  0.47057506  0.84442089    -0.06000
Br854      Br  0.65402401  0.38079180  0.94618140    -0.02900
Br855      Br  0.47979901  0.42023091  0.86195974    -0.00100
Br856      Br  0.61487489  0.37423231  0.80813102    -0.04400
C857        C  0.84794743  0.44019228  0.06468009    -0.11800
C858        C  0.86449551  0.45305774  0.09018300     0.03600
C859        C  0.88529948  0.43444667  0.10724096    -0.12400
C860        C  0.88970048  0.40287894  0.09941430     0.18500
C861        C  0.87287701  0.39008758  0.07409795    -0.09400
C862        C  0.85215093  0.40863402  0.05716300    -0.02400
H863        H  0.89813969  0.44461406  0.12659922     0.05000
C864        C  0.91360697  0.38413718  0.11598260     0.20500
H865        H  0.83920164  0.39834039  0.03793154     0.10200
C866        C  0.90461655  0.35986367  0.13663339    -0.15800
C867        C  0.92667069  0.33917361  0.14925927     0.03200
C868        C  0.95930695  0.34249979  0.14162076    -0.11100
C869        C  0.96741930  0.36815514  0.12125049    -0.01100
C870        C  0.94537151  0.38837296  0.10878352    -0.06300
H871        H  0.87999252  0.35633798  0.14217256     0.06200
H872        H  0.99067843  0.37167055  0.11183231     0.09600
Br873      Br  0.87807724  0.34755669  0.06118476    -0.06000
Br874      Br  0.85842836  0.49535390  0.10331571    -0.02900
Br875      Br  0.90929456  0.30664381  0.17583894    -0.00100
Br876      Br  0.95974632  0.41956810  0.07900808    -0.04400
C877        C  0.84363198  0.43990270  0.91501661    -0.11800
C878        C  0.86943947  0.42703072  0.93061233     0.03600
C879        C  0.88992786  0.40772526  0.91433543    -0.12400
C880        C  0.88546251  0.40094455  0.88250741     0.18500
C881        C  0.85973056  0.41351534  0.86675428    -0.09400
C882        C  0.83891139  0.43275718  0.88309142    -0.02400
H883        H  0.90972335  0.39801808  0.92655775     0.05000
C884        C  0.90968284  0.38260136  0.86635357     0.20500
H885        H  0.81906939  0.44227872  0.87081537     0.10200
C886        C  0.90484436  0.35078642  0.86020478    -0.15800
C887        C  0.92999545  0.33167081  0.85168588     0.03200
C888        C  0.96133571  0.34386183  0.85213338    -0.11100
C889        C  0.96417849  0.37711302  0.85254383    -0.01100
C890        C  0.93917986  0.39605024  0.86047672    -0.06300
H891        H  0.88158313  0.34058897  0.86298163     0.06200
H892        H  0.98625372  0.38903996  0.84793845     0.09600
Br893      Br  0.85277614  0.40558432  0.82302679    -0.06000
Br894      Br  0.87702557  0.43312242  0.97457915    -0.02900
Br895      Br  0.91877416  0.28957712  0.84092068    -0.00100
Br896      Br  0.94676256  0.44024579  0.86466757    -0.04400
C897        C  0.84195509  0.59349081  0.91712200    -0.11800
C898        C  0.86288126  0.58090360  0.89499017     0.03600
C899        C  0.88562966  0.60031438  0.88049043    -0.12400
C900        C  0.88861669  0.63220334  0.88838042     0.18500
C901        C  0.86668114  0.64496068  0.90955308    -0.09400
C902        C  0.84338022  0.62570141  0.92333016    -0.02400
H903        H  0.90194157  0.59019943  0.86389974     0.05000
C904        C  0.91653281  0.65058292  0.87686730     0.20500
H905        H  0.82715055  0.63566611  0.94011062     0.10200
C906        C  0.91340375  0.67776447  0.85854639    -0.15800
C907        C  0.93975556  0.69555152  0.84821531     0.03200
C908        C  0.97087170  0.68590730  0.85544202    -0.11100
C909        C  0.97282601  0.65696088  0.87209709    -0.01100
C910        C  0.94674156  0.64074575  0.88400943    -0.06300
H911        H  0.89017190  0.68543072  0.85247559     0.06200
H912        H  0.99468856  0.64575193  0.87652972     0.09600
Br913      Br  0.86912121  0.68776553  0.92273394    -0.06000
Br914      Br  0.86110052  0.53743629  0.88385864    -0.02900
Br915      Br  0.93023924  0.73262248  0.82463939    -0.00100
Br916      Br  0.95423981  0.60614934  0.91195007    -0.04400
C917        C  0.84597242  0.58533273  0.06733539    -0.11800
C918        C  0.84508613  0.58770184  0.10046056     0.03600
C919        C  0.86840472  0.60484959  0.11604610    -0.12400
C920        C  0.89260349  0.61996259  0.09909324     0.18500
C921        C  0.89365059  0.61729130  0.06608322    -0.09400
C922        C  0.87058869  0.59996939  0.05055680    -0.02400
H923        H  0.86788313  0.60610929  0.14147249     0.05000
C924        C  0.91793712  0.63670791  0.11589309     0.20500
H925        H  0.87156893  0.59842708  0.02514857     0.10200
C926        C  0.94754876  0.62379000  0.11555396    -0.15800
C927        C  0.97405937  0.64075893  0.12495263     0.03200
C928        C  0.97099381  0.67160981  0.13833167    -0.11100
C929        C  0.94000207  0.68329685  0.13989504    -0.01100
C930        C  0.91402258  0.66649130  0.12867328    -0.06300
H931        H  0.95027556  0.60088753  0.10508893     0.06200
H932        H  0.93605169  0.70648276  0.14911527     0.09600
Br933      Br  0.92577311  0.63747890  0.04102225    -0.06000
Br934      Br  0.81381559  0.56663039  0.12577520    -0.02900
Br935      Br  0.01097771  0.61954402  0.11075083    -0.00100
Br936      Br  0.87389777  0.68594488  0.12922707    -0.04400
C937        C  0.12561854  0.01018766  0.71290389    -0.11800
C938        C  0.13618100  0.99913108  0.74275110     0.03600
C939        C  0.11863937  0.00496616  0.76982349    -0.12400
C940        C  0.08908763  0.01831552  0.76830936     0.18500
C941        C  0.07650831  0.02555117  0.73898464    -0.09400
C942        C  0.09423994  0.02058965  0.71179107    -0.02400
H943        H  0.12738114  0.99735239  0.79240461     0.05000
C944        C  0.07084873  0.02103009  0.79766886     0.20500
H945        H  0.08393775  0.02675604  0.68962539     0.10200
C946        C  0.06557700  0.05060634  0.81078693    -0.15800
C947        C  0.05251100  0.05319851  0.84101110     0.03200
C948        C  0.04479836  0.02588234  0.85821610    -0.11100
C949        C  0.04890121  0.99649560  0.84444277    -0.01100
C950        C  0.06176612  0.99388338  0.81445835    -0.06300
H951        H  0.07288972  0.07156335  0.79808186     0.06200
H952        H  0.04269522  0.97535259  0.85744077     0.09600
Br953      Br  0.03524605  0.04205023  0.73489482    -0.06000
Br954      Br  0.17007531  0.97078926  0.75001775    -0.02900
Br955      Br  0.04851012  0.09402180  0.85895753    -0.00100
Br956      Br  0.06749581  0.95261238  0.79786986    -0.04400
C957        C  0.13140729  0.02082603  0.27304059    -0.11800
C958        C  0.13612141  0.04895582  0.25472842     0.03600
C959        C  0.12137739  0.05277627  0.22585498    -0.12400
C960        C  0.10223622  0.02934158  0.21358229     0.18500
C961        C  0.09699131  0.00172055  0.23092521    -0.09400
C962        C  0.11082738  0.99790875  0.26035389    -0.02400
H963        H  0.12580440  0.07390936  0.21219242     0.05000
C964        C  0.09063778  0.03297103  0.18124681     0.20500
H965        H  0.10446703  0.97697355  0.27321392     0.10200
C966        C  0.10632783  0.01748041  0.15704317    -0.15800
C967        C  0.09550119  0.01883398  0.12627852     0.03200
C968        C  0.06912821  0.03684319  0.11907839    -0.11100
C969        C  0.05427427  0.05365642  0.14305545    -0.01100
C970        C  0.06465035  0.05152940  0.17415149    -0.06300
H971        H  0.12646009  0.00334664  0.16235264     0.06200
H972        H  0.03319905  0.06646322  0.13804494     0.09600
Br973      Br  0.07098284  0.96843161  0.21520961    -0.06000
Br974      Br  0.16380815  0.08321589  0.26534418    -0.02900
Br975      Br  0.11634433  0.99388165  0.09534496    -0.00100
Br976      Br  0.04103392  0.07177281  0.20652243    -0.04400
C977        C  0.19481153  0.50874255  0.30812752    -0.11800
C978        C  0.19008680  0.53166134  0.28380061     0.03600
C979        C  0.19840211  0.52500598  0.25269708    -0.12400
C980        C  0.21434026  0.49794762  0.24476252     0.18500
C981        C  0.22306569  0.47728253  0.26864678    -0.09400
C982        C  0.21312493  0.48249351  0.29964123    -0.02400
H983        H  0.19371094  0.54200545  0.23438800     0.05000
C984        C  0.22323675  0.49348330  0.21143797     0.20500
H985        H  0.21894836  0.46515108  0.31719409     0.10200
C986        C  0.25121560  0.50719498  0.20008610    -0.15800
C987        C  0.25787399  0.50829212  0.16778999     0.03200
C988        C  0.23625331  0.49572987  0.14633281    -0.11100
C989        C  0.20903144  0.48056350  0.15784015    -0.01100
C990        C  0.20229469  0.47957808  0.19009126    -0.06300
H991        H  0.26749748  0.51785653  0.21636131     0.06200
H992        H  0.19234654  0.47049748  0.14157976     0.09600
Br993      Br  0.24828245  0.44160592  0.25993025    -0.06000
Br994      Br  0.17807129  0.57474720  0.28853145    -0.02900
Br995      Br  0.29712234  0.52616588  0.15419032    -0.00100
Br996      Br  0.16355074  0.46038246  0.20367146    -0.04400
C997        C  0.36080166  0.48956050  0.44317325    -0.11800
C998        C  0.33297954  0.49259186  0.46093733     0.03600
C999        C  0.30407163  0.49356284  0.44565179    -0.12400
C1000       C  0.30236944  0.49109353  0.41280267     0.18500
C1001       C  0.32998979  0.48607319  0.39531826    -0.09400
C1002       C  0.35882920  0.48559838  0.41048336    -0.02400
H1003       H  0.28296959  0.49748797  0.45931277     0.05000
C1004       C  0.27220684  0.49617408  0.39676168     0.20500
H1005       H  0.37998103  0.48287105  0.39654230     0.10200
C1006       C  0.26961340  0.52162841  0.37625365    -0.15800
C1007       C  0.24239407  0.52662361  0.35901251     0.03200
C1008       C  0.21548683  0.50656375  0.36292194    -0.11100
C1009       C  0.21949402  0.48010732  0.38311812    -0.01100
C1010       C  0.24674970  0.47543272  0.40033059    -0.06300
H1011       H  0.28943819  0.53753469  0.37310249     0.06200
H1012       H  0.20220135  0.46157790  0.38521064     0.09600
Br1013     Br  0.32953293  0.48012119  0.35058857    -0.06000
Br1014     Br  0.33328473  0.49865838  0.50553883    -0.02900
Br1015     Br  0.24538045  0.56127887  0.33029501    -0.00100
Br1016     Br  0.24864888  0.43916424  0.42711797    -0.04400
C1017       C  0.80079543  0.49992593  0.30143962    -0.11800
C1018       C  0.78867308  0.47363753  0.28438762     0.03600
C1019       C  0.77953239  0.47672001  0.25308398    -0.12400
C1020       C  0.78246717  0.50515043  0.23697674     0.18500
C1021       C  0.79421866  0.53134739  0.25297038    -0.09400
C1022       C  0.80264761  0.52879125  0.28459680    -0.02400
H1023       H  0.77024848  0.45643520  0.24091132     0.05000
C1024       C  0.77373151  0.50643362  0.20331784     0.20500
H1025       H  0.80895710  0.55040697  0.29597264     0.10200
C1026       C  0.74872598  0.52503281  0.19358389    -0.15800
C1027       C  0.73980850  0.52600048  0.16194048     0.03200
C1028       C  0.75572248  0.50772829  0.13956828    -0.11100
C1029       C  0.78011243  0.48855033  0.14958120    -0.01100
C1030       C  0.78938833  0.48804552  0.18094263    -0.06300
H1031       H  0.73600996  0.53869787  0.21070053     0.06200
H1032       H  0.79277468  0.47457705  0.13267555     0.09600
Br1033     Br  0.79927485  0.57137398  0.23268404    -0.06000
Br1034     Br  0.78424118  0.43188394  0.30060496    -0.02900
Br1035     Br  0.70481265  0.55122395  0.15093495    -0.00100
Br1036     Br  0.82468276  0.46297860  0.19166951    -0.04400
C1037       C  0.77014203  0.49247163  0.34946979    -0.11800
C1038       C  0.75721367  0.46557525  0.36603410     0.03600
C1039       C  0.72522650  0.46443977  0.37408634    -0.12400
C1040       C  0.70489245  0.48816069  0.36539066     0.18500
C1041       C  0.71661786  0.51325540  0.34718368    -0.09400
C1042       C  0.74840373  0.51535534  0.33987687    -0.02400
H1043       H  0.71616569  0.44511970  0.38827585     0.05000
C1044       C  0.67362917  0.48979135  0.38071885     0.20500
H1045       H  0.75645348  0.53597321  0.32711474     0.10200
C1046       C  0.66859751  0.51500392  0.40069529    -0.15800
C1047       C  0.64067558  0.51817256  0.41727824     0.03200
C1048       C  0.61631630  0.49522610  0.41441235    -0.11100
C1049       C  0.62155060  0.46950192  0.39451998    -0.01100
C1050       C  0.64997597  0.46659628  0.37782874    -0.06300
H1051       H  0.68706931  0.53237623  0.40385794     0.06200
H1052       H  0.60355768  0.45158584  0.39189757     0.09600
Br1053     Br  0.69039528  0.54631138  0.33260324    -0.06000
Br1054     Br  0.77801682  0.42792318  0.37890156    -0.02900
Br1055     Br  0.63979034  0.55425319  0.44427054    -0.00100
Br1056     Br  0.65523921  0.43096956  0.35120638    -0.04400
C1057       C  0.85563030  0.99739667  0.71886629    -0.11800
C1058       C  0.85665498  0.02041875  0.74322130     0.03600
C1059       C  0.87351779  0.01515423  0.77074864    -0.12400
C1060       C  0.89059507  0.98793525  0.77499308     0.18500
C1061       C  0.89293496  0.96678501  0.75014219    -0.09400
C1062       C  0.87627730  0.97184569  0.72240119    -0.02400
H1063       H  0.87259237  0.03215608  0.78953115     0.05000
C1064       C  0.90595925  0.98274231  0.80559019     0.20500
H1065       H  0.88050770  0.95561624  0.70367642     0.10200
C1066       C  0.89098695  0.96409856  0.82880035    -0.15800
C1067       C  0.90211159  0.96338653  0.85982974     0.03200
C1068       C  0.92819604  0.98218622  0.86797897    -0.11100
C1069       C  0.94437885  0.99877778  0.84389770    -0.01100
C1070       C  0.93353594  0.99917532  0.81310072    -0.06300
H1071       H  0.86985626  0.95108471  0.82304828     0.06200
H1072       H  0.96523829  0.01243570  0.84925394     0.09600
Br1073     Br  0.91963685  0.93126299  0.75274816    -0.06000
Br1074     Br  0.83322752  0.05827276  0.74349262    -0.02900
Br1075     Br  0.87970144  0.93816802  0.89018608    -0.00100
Br1076     Br  0.95652354  0.02344984  0.78228095    -0.04400
C1077       C  0.85686847  0.00584759  0.27710479    -0.11800
C1078       C  0.85496537  0.02732815  0.25128356     0.03600
C1079       C  0.87114084  0.02170626  0.22309142    -0.12400
C1080       C  0.88880800  0.99473152  0.21893517     0.18500
C1081       C  0.88983172  0.97268833  0.24321020    -0.09400
C1082       C  0.87350238  0.97782514  0.27111770    -0.02400
H1083       H  0.86994275  0.03862625  0.20408314     0.05000
C1084       C  0.90524658  0.98961765  0.18873131     0.20500
H1085       H  0.87363947  0.95864208  0.28762636     0.10200
C1086       C  0.93813926  0.99005755  0.18758885    -0.15800
C1087       C  0.95425714  0.98810793  0.15882873     0.03200
C1088       C  0.93723892  0.98602992  0.13066342    -0.11100
C1089       C  0.90438837  0.98369739  0.13220180    -0.01100
C1090       C  0.88839014  0.98545715  0.16082909    -0.06300
H1091       H  0.95127215  0.99302682  0.20905145     0.06200
H1092       H  0.89097217  0.98161510  0.11080247     0.09600
Br1093     Br  0.91233968  0.93435142  0.23914274    -0.06000
Br1094     Br  0.83186290  0.06555263  0.25176577    -0.02900
Br1095     Br  0.99908486  0.99126994  0.15937852    -0.00100
Br1096     Br  0.84347785  0.98265330  0.16048971    -0.04400
C1097       C  0.23181002  0.51752166  0.85260222    -0.11800
C1098       C  0.24865122  0.50152715  0.82915724     0.03600
C1099       C  0.23911175  0.50329142  0.79774853    -0.12400
C1100       C  0.21274846  0.52056215  0.78937435     0.18500
C1101       C  0.19593303  0.53643365  0.81276852    -0.09400
C1102       C  0.20567875  0.53507389  0.84399998    -0.02400
H1103       H  0.25216773  0.49102403  0.77980845     0.05000
C1104       C  0.20239920  0.52087645  0.75633150     0.20500
H1105       H  0.19216239  0.54700809  0.86184897     0.10200
C1106       C  0.18499029  0.49550166  0.74498615    -0.15800
C1107       C  0.17517985  0.49419799  0.71364140     0.03200
C1108       C  0.18438084  0.51865566  0.69203635    -0.11100
C1109       C  0.19877517  0.54571698  0.70535339    -0.01100
C1110       C  0.20863738  0.54649796  0.73650733    -0.06300
H1111       H  0.17855091  0.47660534  0.76100940     0.06200
H1112       H  0.20519956  0.56549022  0.69046746     0.09600
Br1113     Br  0.15875330  0.55908788  0.80325839    -0.06000
Br1114     Br  0.28528035  0.47796968  0.83866345    -0.02900
Br1115     Br  0.14640428  0.45995967  0.70610965    -0.00100
Br1116     Br  0.23263814  0.58211680  0.75029460    -0.04400
C1117       C  0.37198506  0.53041594  0.57805761    -0.11800
C1118       C  0.35502577  0.55837219  0.58170380     0.03600
C1119       C  0.32411754  0.55697725  0.59345232    -0.12400
C1120       C  0.30974520  0.52816272  0.60135705     0.18500
C1121       C  0.32678630  0.50058457  0.59853079    -0.09400
C1122       C  0.35758403  0.50193365  0.58770507    -0.02400
H1123       H  0.31113563  0.57837633  0.59615652     0.05000
C1124       C  0.27767057  0.52684628  0.61451188     0.20500
H1125       H  0.36993455  0.48007868  0.58573767     0.10200
C1126       C  0.25188253  0.52490984  0.59457977    -0.15800
C1127       C  0.22131824  0.52090719  0.60665912     0.03200
C1128       C  0.21573066  0.51984997  0.63994188    -0.11100
C1129       C  0.24291510  0.51920734  0.65904033    -0.01100
C1130       C  0.27301689  0.52336598  0.64686502    -0.06300
H1131       H  0.25564143  0.52598325  0.56936628     0.06200
H1132       H  0.24175531  0.51414631  0.68384214     0.09600
Br1133     Br  0.30854071  0.46022826  0.60819236    -0.06000
Br1134     Br  0.37171973  0.59876470  0.56989592    -0.02900
Br1135     Br  0.18907900  0.51774351  0.57553990    -0.00100
Br1136     Br  0.30744885  0.52279200  0.67559309    -0.04400
C1137       C  0.79351495  0.50978035  0.68465649    -0.11800
C1138       C  0.78207061  0.53726796  0.69969141     0.03600
C1139       C  0.77237674  0.53639821  0.73113032    -0.12400
C1140       C  0.77250624  0.50869498  0.74853085     0.18500
C1141       C  0.78090912  0.48084451  0.73368335    -0.09400
C1142       C  0.79083520  0.48142747  0.70222235    -0.02400
H1143       H  0.76507146  0.55780173  0.74240177     0.05000
C1144       C  0.76473305  0.50994687  0.78239250     0.20500
H1145       H  0.79572255  0.45911353  0.69166775     0.10200
C1146       C  0.73620645  0.49725390  0.79365577    -0.15800
C1147       C  0.72829687  0.49898892  0.82563607     0.03200
C1148       C  0.74875662  0.51434969  0.84647220    -0.11100
C1149       C  0.77688855  0.52748996  0.83506849    -0.01100
C1150       C  0.78518517  0.52501916  0.80343192    -0.06300
H1151       H  0.72019117  0.48591496  0.77757217     0.06200
H1152       H  0.79309348  0.53861954  0.85112545     0.09600
Br1153     Br  0.77965823  0.44147246  0.75561703    -0.06000
Br1154     Br  0.78003184  0.57788110  0.68072662    -0.02900
Br1155     Br  0.68920858  0.48080502  0.83974461    -0.00100
Br1156     Br  0.82556017  0.54098441  0.79058936    -0.04400
C1157       C  0.77362045  0.51797254  0.63129303    -0.11800
C1158       C  0.76819317  0.54430045  0.61064952     0.03600
C1159       C  0.73982420  0.54655714  0.59489997    -0.12400
C1160       C  0.71512556  0.52586139  0.60095082     0.18500
C1161       C  0.71846862  0.50215946  0.62337684    -0.09400
C1162       C  0.74741418  0.49785035  0.63751069    -0.02400
H1163       H  0.73641619  0.56548974  0.57824624     0.05000
C1164       C  0.68625397  0.52910961  0.58287967     0.20500
H1165       H  0.74949714  0.47819542  0.65345084     0.10200
C1166       C  0.67929870  0.50671304  0.55999698    -0.15800
C1167       C  0.65165428  0.50835543  0.54301366     0.03200
C1168       C  0.63078271  0.53284396  0.54873866    -0.11100
C1169       C  0.63831467  0.55601723  0.57063955    -0.01100
C1170       C  0.66602683  0.55437207  0.58768266    -0.06300
H1171       H  0.69510521  0.48754560  0.55588191     0.06200
H1172       H  0.62191425  0.57447571  0.57559477     0.09600
Br1173     Br  0.68377406  0.47580353  0.63609140    -0.06000
Br1174     Br  0.79318238  0.58157977  0.60306382    -0.02900
Br1175     Br  0.64250590  0.47578562  0.51345692    -0.00100
Br1176     Br  0.67418358  0.58570036  0.61878802    -0.04400
C1177       C  0.98837922  0.31461420  0.18855984    -0.11800
C1178       C  0.01015615  0.29368813  0.20271117     0.03600
C1179       C  0.01063948  0.28900712  0.23534306    -0.12400
C1180       C  0.99129084  0.30569051  0.25556681     0.18500
C1181       C  0.97256782  0.32920259  0.24264180    -0.09400
C1182       C  0.97149471  0.33372689  0.20981047    -0.02400
H1183       H  0.02626591  0.27183732  0.24512461     0.05000
C1184       C  0.99192896  0.29835363  0.28998041     0.20500
H1185       H  0.95722399  0.35250976  0.20129529     0.10200
C1186       C  0.01880676  0.30572654  0.30729842    -0.15800
C1187       C  0.02129373  0.29731575  0.33918626     0.03200
C1188       C  0.99638525  0.28083283  0.35473760    -0.11100
C1189       C  0.96949405  0.27345999  0.33705679    -0.01100
C1190       C  0.96728382  0.28172353  0.30512475    -0.06300
H1191       H  0.03811125  0.31815106  0.29583671     0.06200
H1192       H  0.95010581  0.26069931  0.34796565     0.09600
Br1193     Br  0.94894057  0.35646676  0.26912857    -0.06000
Br1194     Br  0.03987163  0.26914692  0.18009836    -0.02900
Br1195     Br  0.05909127  0.31047171  0.35969505    -0.00100
Br1196     Br  0.93081768  0.26824858  0.28263588    -0.04400
C1197       C  0.99289404  0.31203742  0.81471853    -0.11800
C1198       C  0.99010107  0.28027263  0.80361080     0.03600
C1199       C  0.99193524  0.27393861  0.77134479    -0.12400
C1200       C  0.99526284  0.29771417  0.74898898     0.18500
C1201       C  0.99628119  0.32884730  0.75902825    -0.09400
C1202       C  0.99466173  0.33568458  0.79113498    -0.02400
H1203       H  0.98994393  0.24995563  0.76333598     0.05000
C1204       C  0.99581397  0.28933445  0.71519298     0.20500
H1205       H  0.99559891  0.36007103  0.79777731     0.10200
C1206       C  0.96789352  0.28956756  0.69836960    -0.15800
C1207       C  0.96706315  0.28117132  0.66658896     0.03200
C1208       C  0.99502288  0.27219657  0.65061975    -0.11100
C1209       C  0.02291171  0.27144200  0.66814806    -0.01100
C1210       C  0.02340117  0.27981738  0.70002324    -0.06300
H1211       H  0.94647849  0.29644533  0.71013762     0.06200
H1212       H  0.04465098  0.26465492  0.65700684     0.09600
Br1213     Br  0.00032917  0.36285860  0.72960820    -0.06000
Br1214     Br  0.98053621  0.24272425  0.82745653    -0.02900
Br1215     Br  0.92652382  0.28371439  0.64745331    -0.00100
Br1216     Br  0.06228197  0.27842273  0.72211934    -0.04400
C1217       C  0.92718418  0.36609456  0.42871887    -0.11800
C1218       C  0.93503086  0.39853208  0.43048024     0.03600
C1219       C  0.91796564  0.42029951  0.41316760    -0.12400
C1220       C  0.89295223  0.41076562  0.39424267     0.18500
C1221       C  0.88569075  0.37873994  0.39168278    -0.09400
C1222       C  0.90267894  0.35686950  0.40865841    -0.02400
H1223       H  0.92369646  0.44500524  0.41510065     0.05000
C1224       C  0.87290174  0.43447790  0.37946479     0.20500
H1225       H  0.89601544  0.33243223  0.40649175     0.10200
C1226       C  0.87257286  0.43797670  0.34675740    -0.15800
C1227       C  0.85213203  0.45876855  0.33200412     0.03200
C1228       C  0.82920445  0.47499395  0.35034360    -0.11100
C1229       C  0.83238024  0.47301962  0.38343909    -0.01100
C1230       C  0.85340484  0.45311762  0.39786053    -0.06300
H1231       H  0.88897355  0.42484783  0.33263184     0.06200
H1232       H  0.81707942  0.48609469  0.39860619     0.09600
Br1233     Br  0.85149424  0.36372438  0.36670966    -0.06000
Br1234     Br  0.96806539  0.41575259  0.45586612    -0.02900
Br1235     Br  0.86179960  0.46545821  0.28813693    -0.00100
Br1236     Br  0.85292870  0.45092337  0.44296284    -0.04400
C1237       C  0.92116636  0.36178207  0.57618688    -0.11800
C1238       C  0.93083436  0.39353996  0.57931577     0.03600
C1239       C  0.91047452  0.41515923  0.59298145    -0.12400
C1240       C  0.88066561  0.40584490  0.60405439     0.18500
C1241       C  0.87141857  0.37428615  0.60180854    -0.09400
C1242       C  0.89156739  0.35267843  0.58822840    -0.02400
H1243       H  0.91788132  0.43943723  0.59490588     0.05000
C1244       C  0.85907567  0.42939736  0.61706807     0.20500
H1245       H  0.88370528  0.32859328  0.58674121     0.10200
C1246       C  0.83273735  0.43765227  0.59992245    -0.15800
C1247       C  0.81261173  0.46131364  0.60994065     0.03200
C1248       C  0.81839756  0.47741024  0.63900174    -0.11100
C1249       C  0.84468161  0.46732219  0.65640427    -0.01100
C1250       C  0.86471824  0.44407806  0.64578038    -0.06300
H1251       H  0.82859911  0.42632215  0.57757567     0.06200
H1252       H  0.85082765  0.47896006  0.67799783     0.09600
Br1253     Br  0.83151478  0.35952179  0.61738942    -0.06000
Br1254     Br  0.97173144  0.40905539  0.56704605    -0.02900
Br1255     Br  0.78180513  0.47088677  0.57871632    -0.00100
Br1256     Br  0.90009931  0.43375303  0.67103249    -0.04400
C1257       C  0.07650456  0.36363650  0.57264509    -0.11800
C1258       C  0.07797015  0.36664699  0.60557492     0.03600
C1259       C  0.09756306  0.38954836  0.61883751    -0.12400
C1260       C  0.11563723  0.40979012  0.59963822     0.18500
C1261       C  0.11426668  0.40664929  0.56673090    -0.09400
C1262       C  0.09476656  0.38374977  0.55350493    -0.02400
H1263       H  0.09778803  0.39238340  0.64412514     0.05000
C1264       C  0.13246786  0.43660209  0.61392293     0.20500
H1265       H  0.09389316  0.38158872  0.52815836     0.10200
C1266       C  0.16179224  0.43287172  0.62768468    -0.15800
C1267       C  0.17809084  0.45841395  0.64093887     0.03200
C1268       C  0.16471481  0.48901128  0.64112483    -0.11100
C1269       C  0.13576214  0.49186520  0.62515580    -0.01100
C1270       C  0.11951128  0.46635494  0.61288794    -0.06300
H1271       H  0.17207564  0.40986893  0.62815937     0.06200
H1272       H  0.12516638  0.51398309  0.62062844     0.09600
Br1273     Br  0.13799758  0.43379402  0.53901646    -0.06000
Br1274     Br  0.05151963  0.34203573  0.63311675    -0.02900
Br1275     Br  0.21755055  0.44821779  0.65943727    -0.00100
Br1276     Br  0.07928881  0.47359167  0.59455153    -0.04400
C1277       C  0.07106648  0.36432276  0.42876174    -0.11800
C1278       C  0.10393889  0.36384486  0.42561765     0.03600
C1279       C  0.11937789  0.38800925  0.40942781    -0.12400
C1280       C  0.10247894  0.41242406  0.39611966     0.18500
C1281       C  0.06965786  0.41240910  0.39827245    -0.09400
C1282       C  0.05413640  0.38846617  0.41479687    -0.02400
H1283       H  0.14471849  0.38816335  0.40774634     0.05000
C1284       C  0.11995204  0.43841693  0.38150946     0.20500
H1285       H  0.02881199  0.38858117  0.41662080     0.10200
C1286       C  0.12751734  0.43708320  0.34968812    -0.15800
C1287       C  0.14664086  0.45996992  0.33528266     0.03200
C1288       C  0.15993780  0.48482597  0.35382262    -0.11100
C1289       C  0.14969291  0.48637797  0.38575719    -0.01100
C1290       C  0.13053706  0.46348700  0.39953867    -0.06300
H1291       H  0.11821106  0.41788539  0.33588175     0.06200
H1292       H  0.15828927  0.50488133  0.40083054     0.09600
Br1293     Br  0.04537311  0.44469576  0.37938387    -0.06000
Br1294     Br  0.12910924  0.33212303  0.44459536    -0.02900
Br1295     Br  0.14829009  0.45478035  0.29040081    -0.00100
Br1296     Br  0.12066675  0.46647406  0.44357266    -0.04400
C1297       C  0.14424713  0.04286834  0.66442457    -0.11800
C1298       C  0.15609984  0.04800584  0.63327500     0.03600
C1299       C  0.14810500  0.07512385  0.61670470    -0.12400
C1300       C  0.12909577  0.09763020  0.63060247     0.18500
C1301       C  0.12291163  0.09571068  0.66300144    -0.09400
C1302       C  0.13199148  0.06941011  0.67982562    -0.02400
H1303       H  0.15387760  0.07693644  0.59189602     0.05000
C1304       C  0.11120588  0.11893181  0.61034560     0.20500
H1305       H  0.12748821  0.06944940  0.70483825     0.10200
C1306       C  0.07841570  0.11566531  0.61033492    -0.15800
C1307       C  0.06006915  0.13508659  0.59191006     0.03200
C1308       C  0.07454801  0.15784979  0.57249385    -0.11100
C1309       C  0.10739536  0.16076054  0.57186507    -0.01100
C1310       C  0.12579928  0.14137628  0.59052750    -0.06300
H1311       H  0.06695984  0.09827283  0.62530831     0.06200
H1312       H  0.11868785  0.17860926  0.55729551     0.09600
Br1313     Br  0.09955827  0.12697549  0.68490834    -0.06000
Br1314     Br  0.17830005  0.01774085  0.60921616    -0.02900
Br1315     Br  0.01537843  0.13164706  0.59645565    -0.00100
Br1316     Br  0.17039564  0.14754878  0.58955097    -0.04400
C1317       C  0.92761731  0.15223567  0.57983787    -0.11800
C1318       C  0.92342341  0.15573498  0.61265902     0.03600
C1319       C  0.90838410  0.13210901  0.63040097    -0.12400
C1320       C  0.89761226  0.10450790  0.61628610     0.18500
C1321       C  0.90230709  0.10052748  0.58372097    -0.09400
C1322       C  0.91727585  0.12421519  0.56580852    -0.02400
H1323       H  0.90543238  0.13510190  0.65552312     0.05000
C1324       C  0.88186313  0.08014280  0.63616232     0.20500
H1325       H  0.92043172  0.12089975  0.54075705     0.10200
C1326       C  0.85065346  0.08381627  0.64551910    -0.15800
C1327       C  0.83460016  0.06124409  0.66412442     0.03200
C1328       C  0.85007081  0.03302828  0.67335731    -0.11100
C1329       C  0.88275060  0.03195996  0.66622152    -0.01100
C1330       C  0.89813104  0.05431470  0.64736429    -0.06300
H1331       H  0.83864839  0.10477957  0.63829740     0.06200
H1332       H  0.89613683  0.01183475  0.67322235     0.09600
Br1333     Br  0.88819883  0.06333218  0.56279216    -0.06000
Br1334     Br  0.93973339  0.19110573  0.63521600    -0.02900
Br1335     Br  0.79376044  0.07492115  0.67713660    -0.00100
Br1336     Br  0.94125750  0.04779228  0.63650277    -0.04400
C1337       C  0.92591586  0.15719516  0.42333667    -0.11800
C1338       C  0.94138548  0.13029758  0.41236181     0.03600
C1339       C  0.92581218  0.10929770  0.39256598    -0.12400
C1340       C  0.89495533  0.11447932  0.38314735     0.18500
C1341       C  0.87929473  0.14096754  0.39439057    -0.09400
C1342       C  0.89483532  0.16212969  0.41408282    -0.02400
H1343       H  0.93791673  0.08877127  0.38432730     0.05000
C1344       C  0.87919704  0.09114533  0.36279078     0.20500
H1345       H  0.88252556  0.18256115  0.42221917     0.10200
C1346       C  0.85420207  0.07343175  0.37510672    -0.15800
C1347       C  0.84044183  0.04906040  0.35808393     0.03200
C1348       C  0.85177413  0.04137893  0.32727080    -0.11100
C1349       C  0.87616907  0.06080976  0.31478349    -0.01100
C1350       C  0.88991109  0.08496557  0.33219143    -0.06300
H1351       H  0.84577997  0.07813879  0.39870035     0.06200
H1352       H  0.88676734  0.05621568  0.29225120     0.09600
Br1353     Br  0.83701830  0.14963531  0.38273694    -0.06000
Br1354     Br  0.98430777  0.12165949  0.42165941    -0.02900
Br1355     Br  0.80618918  0.02806058  0.37965146    -0.00100
Br1356     Br  0.92419130  0.10811806  0.31334786    -0.04400
C1357       C  0.13726798  0.04620721  0.32445568    -0.11800
C1358       C  0.10471061  0.05331431  0.32865533     0.03600
C1359       C  0.09570593  0.07787868  0.34771753    -0.12400
C1360       C  0.11769211  0.09673155  0.36258954     0.18500
C1361       C  0.14967579  0.09210964  0.35705704    -0.09400
C1362       C  0.15924702  0.06720107  0.33814403    -0.02400
H1363       H  0.07097868  0.08194977  0.35168096     0.05000
C1364       C  0.10557011  0.12057189  0.38401385     0.20500
H1365       H  0.18404611  0.06493218  0.33408383     0.10200
C1366       C  0.09730268  0.11159272  0.41477187    -0.15800
C1367       C  0.07930670  0.13102948  0.43386607     0.03200
C1368       C  0.06937738  0.16018744  0.42205332    -0.11100
C1369       C  0.07823578  0.16914260  0.39125206    -0.01100
C1370       C  0.09598216  0.14954962  0.37226459    -0.06300
H1371       H  0.10405520  0.08886253  0.42358392     0.06200
H1372       H  0.07088950  0.19133573  0.38161422     0.09600
Br1373     Br  0.18089054  0.11947392  0.37448295    -0.06000
Br1374     Br  0.06974410  0.02912916  0.31309608    -0.02900
Br1375     Br  0.07036765  0.11671420  0.47596638    -0.00100
Br1376     Br  0.10527566  0.16239939  0.32983479    -0.04400
C1377       C  0.98866564  0.74754906  0.34656559    -0.11800
C1378       C  0.96638633  0.75958521  0.32553337     0.03600
C1379       C  0.96734605  0.75095607  0.29372474    -0.12400
C1380       C  0.99018029  0.73041703  0.28246632     0.18500
C1381       C  0.01249559  0.71872791  0.30334692    -0.09400
C1382       C  0.01169604  0.72739207  0.33491316    -0.02400
H1383       H  0.95035697  0.76042369  0.27766141     0.05000
C1384       C  0.99111648  0.72182983  0.24878939     0.20500
H1385       H  0.02876116  0.71752087  0.35065971     0.10200
C1386       C  0.01517117  0.73394835  0.22969052    -0.15800
C1387       C  0.01827407  0.72513592  0.19821105     0.03200
C1388       C  0.99575626  0.70443637  0.18404974    -0.11100
C1389       C  0.97183379  0.69209667  0.20430176    -0.01100
C1390       C  0.96977504  0.70022857  0.23611121    -0.06300
H1391       H  0.03212571  0.75013234  0.23962927     0.06200
H1392       H  0.95539460  0.67450705  0.19642910     0.09600
Br1393     Br  0.04372711  0.68968705  0.29010162    -0.06000
Br1394     Br  0.93534111  0.78901840  0.33840575    -0.02900
Br1395     Br  0.05361244  0.74417621  0.17665100    -0.00100
Br1396     Br  0.93905570  0.67914288  0.26218042    -0.04400
C1397       C  0.99173134  0.74680999  0.64244904    -0.11800
C1398       C  0.96577841  0.73336361  0.65924463     0.03600
C1399       C  0.96858260  0.72523020  0.69109023    -0.12400
C1400       C  0.99678536  0.72967262  0.70703283     0.18500
C1401       C  0.02265879  0.74277598  0.69057481    -0.09400
C1402       C  0.01978489  0.75178610  0.65898592    -0.02400
H1403       H  0.94847196  0.71540812  0.70361831     0.05000
C1404       C  0.99794922  0.72284842  0.74136425     0.20500
H1405       H  0.03996338  0.76224106  0.64715367     0.10200
C1406       C  0.99531424  0.69205981  0.75286777    -0.15800
C1407       C  0.99568548  0.68541365  0.78541060     0.03200
C1408       C  0.00007377  0.70993480  0.80776627    -0.11100
C1409       C  0.00027263  0.74095570  0.79507559    -0.01100
C1410       C  0.99937554  0.74733172  0.76294851    -0.06300
H1411       H  0.99262806  0.67301680  0.73637049     0.06200
H1412       H  0.99979174  0.76137661  0.80975654     0.09600
Br1413     Br  0.06282198  0.74760604  0.70995674    -0.06000
Br1414     Br  0.92583018  0.72398919  0.64086332    -0.02900
Br1415     Br  0.98913688  0.64218640  0.79678241    -0.00100
Br1416     Br  0.99788812  0.79043382  0.74985266    -0.04400
C1417       C  0.16691401  0.54200993  0.35173514    -0.11800
C1418       C  0.13565108  0.54778118  0.34120613     0.03600
C1419       C  0.11841698  0.57254830  0.35335270    -0.12400
C1420       C  0.13109712  0.59271803  0.37557548     0.18500
C1421       C  0.16200778  0.58867954  0.38520092    -0.09400
C1422       C  0.17917369  0.56331780  0.37416352    -0.02400
H1423       H  0.09451180  0.57577892  0.34581450     0.05000
C1424       C  0.11044139  0.61538920  0.39112876     0.20500
H1425       H  0.20173670  0.56025360  0.38460417     0.10200
C1426       C  0.09492737  0.60622184  0.41886831    -0.15800
C1427       C  0.07460460  0.62640636  0.43442674     0.03200
C1428       C  0.06976583  0.65695011  0.42233636    -0.11100
C1429       C  0.08525426  0.66575064  0.39409147    -0.01100
C1430       C  0.10517543  0.64518653  0.37841182    -0.06300
H1431       H  0.09866452  0.58304330  0.42846558     0.06200
H1432       H  0.08174845  0.68870500  0.38391581     0.09600
Br1433     Br  0.18142032  0.61701069  0.41418895    -0.06000
Br1434     Br  0.11389028  0.52400767  0.30985114    -0.02900
Br1435     Br  0.05536145  0.61021770  0.47223813    -0.00100
Br1436     Br  0.12465358  0.65857695  0.33970950    -0.04400
C1437       C  0.06665417  0.65937449  0.57102455    -0.11800
C1438       C  0.08032461  0.66867424  0.59995825     0.03600
C1439       C  0.09943879  0.64824731  0.61639883    -0.12400
C1440       C  0.10541068  0.61849970  0.60485862     0.18500
C1441       C  0.09101055  0.60844213  0.57703373    -0.09400
C1442       C  0.07161931  0.62873539  0.56048171    -0.02400
H1443       H  0.10998481  0.65570560  0.63823665     0.05000
C1444       C  0.12659185  0.59800392  0.62221230     0.20500
H1445       H  0.06108436  0.62075450  0.53894470     0.10200
C1446       C  0.11440680  0.57866163  0.64590961    -0.15800
C1447       C  0.13247825  0.55511104  0.65912400     0.03200
C1448       C  0.16344133  0.54947085  0.64730534    -0.11100
C1449       C  0.17680574  0.57340725  0.62787361    -0.01100
C1450       C  0.15845881  0.59667038  0.61455934    -0.06300
H1451       H  0.09011075  0.58088680  0.65303797     0.06200
H1452       H  0.20131062  0.57397349  0.62164587     0.09600
Br1453     Br  0.09790478  0.56734428  0.56068961    -0.06000
Br1454     Br  0.07379846  0.70829531  0.61968067    -0.02900
Br1455     Br  0.11053029  0.52967913  0.68969148    -0.00100
Br1456     Br  0.17743117  0.62532935  0.58485177    -0.04400
C1457       C  0.92646756  0.65204531  0.57585523    -0.11800
C1458       C  0.94070907  0.62242911  0.57905916     0.03600
C1459       C  0.92529356  0.59860744  0.59584421    -0.12400
C1460       C  0.89628908  0.60377586  0.61013014     0.18500
C1461       C  0.88363874  0.63392854  0.60986366    -0.09400
C1462       C  0.89855844  0.65768168  0.59252005    -0.02400
H1463       H  0.93539611  0.57552227  0.59679671     0.05000
C1464       C  0.87762833  0.57678021  0.62124729     0.20500
H1465       H  0.88762123  0.68033566  0.59125791     0.10200
C1466       C  0.87216832  0.57218320  0.65332975    -0.15800
C1467       C  0.85102921  0.54905920  0.66402141     0.03200
C1468       C  0.83221386  0.53239034  0.64182327    -0.11100
C1469       C  0.84248713  0.53376427  0.61006999    -0.01100
C1470       C  0.86438705  0.55594404  0.59964722    -0.06300
H1471       H  0.88483023  0.58641677  0.67011082     0.06200
H1472       H  0.83100826  0.51967014  0.59246242     0.09600
Br1473     Br  0.84526434  0.64349610  0.63130279    -0.06000
Br1474     Br  0.98113422  0.61227667  0.56199318    -0.02900
Br1475     Br  0.85501816  0.53931419  0.70798082    -0.00100
Br1476     Br  0.87149531  0.55973486  0.55509185    -0.04400
C1477       C  0.90997866  0.65186668  0.42694001    -0.11800
C1478       C  0.90647885  0.62089561  0.43884565     0.03600
C1479       C  0.88832569  0.59863929  0.42259728    -0.12400
C1480       C  0.87254917  0.60648945  0.39493067     0.18500
C1481       C  0.87440356  0.63758908  0.38400826    -0.09400
C1482       C  0.89319412  0.65972057  0.39961777    -0.02400
H1483       H  0.88615145  0.57502663  0.43187139     0.05000
C1484       C  0.85351816  0.58202078  0.37861107     0.20500
H1485       H  0.89452633  0.68331886  0.39023056     0.10200
C1486       C  0.82515339  0.57180521  0.39201190    -0.15800
C1487       C  0.80771974  0.54666484  0.37954673     0.03200
C1488       C  0.81849989  0.53078616  0.35174867    -0.11100
C1489       C  0.84768921  0.54154825  0.33906142    -0.01100
C1490       C  0.86447843  0.56698356  0.35153032    -0.06300
H1491       H  0.81706041  0.58290599  0.41338130     0.06200
H1492       H  0.85791370  0.52959206  0.31920028     0.09600
Br1493     Br  0.85052434  0.65113920  0.34864351    -0.06000
Br1494     Br  0.92342405  0.60768206  0.47834369    -0.02900
Br1495     Br  0.77291409  0.53467376  0.40649920    -0.00100
Br1496     Br  0.90313200  0.57952214  0.33145565    -0.04400
C1497       C  0.06163223  0.86246930  0.41458400    -0.11800
C1498       C  0.08628015  0.88028900  0.42744159     0.03600
C1499       C  0.10305257  0.90177036  0.40850049    -0.12400
C1500       C  0.09490901  0.90685300  0.37691406     0.18500
C1501       C  0.07064607  0.88841820  0.36390706    -0.09400
C1502       C  0.05461207  0.86611460  0.38261659    -0.02400
H1503       H  0.12181388  0.91550812  0.41880377     0.05000
C1504       C  0.10957012  0.93370654  0.35934722     0.20500
H1505       H  0.03597487  0.85214156  0.37239066     0.10200
C1506       C  0.12712138  0.92925542  0.33166523    -0.15800
C1507       C  0.14014014  0.95479769  0.31451245     0.03200
C1508       C  0.13559766  0.98623491  0.32477913    -0.11100
C1509       C  0.12042622  0.98925773  0.35459162    -0.01100
C1510       C  0.10644199  0.96419176  0.37063148    -0.06300
H1511       H  0.13052090  0.90569763  0.32317172     0.06200
H1512       H  0.11890641  0.01128418  0.36657985     0.09600
Br1513     Br  0.05699698  0.89428859  0.32148659    -0.06000
Br1514     Br  0.09793912  0.87585938  0.47067652    -0.02900
Br1515     Br  0.16324804  0.94413415  0.27720771    -0.00100
Br1516     Br  0.08151755  0.97372737  0.40718662    -0.04400
C1517       C  0.84829401  0.98403485  0.33323232    -0.11800
C1518       C  0.88004520  0.97872645  0.34232131     0.03600
C1519       C  0.88744037  0.95306972  0.36085242    -0.12400
C1520       C  0.86444709  0.93257705  0.37256531     0.18500
C1521       C  0.83289467  0.93859269  0.36637488    -0.09400
C1522       C  0.82507329  0.96385937  0.34687905    -0.02400
H1523       H  0.91179857  0.94888300  0.36619254     0.05000
C1524       C  0.87509762  0.90644743  0.39254044     0.20500
H1525       H  0.80049035  0.96776054  0.34318914     0.10200
C1526       C  0.89103962  0.91410860  0.42007649    -0.15800
C1527       C  0.90889072  0.89212518  0.43596713     0.03200
C1528       C  0.91045484  0.86092285  0.42471887    -0.11100
C1529       C  0.89282709  0.85294300  0.39797281    -0.01100
C1530       C  0.87569092  0.87543251  0.38166497    -0.06300
H1531       H  0.89104405  0.93808049  0.42827620     0.06200
H1532       H  0.89340934  0.82939623  0.38875675     0.09600
Br1533     Br  0.79974478  0.91404159  0.38536312    -0.06000
Br1534     Br  0.91637158  0.00257934  0.32857666    -0.02900
Br1535     Br  0.93096601  0.90789871  0.47193186    -0.00100
Br1536     Br  0.85598126  0.86330279  0.34317716    -0.04400
C1537       C  0.84043109  0.97456054  0.66366261    -0.11800
C1538       C  0.83489221  0.94209638  0.67034508     0.03600
C1539       C  0.84784872  0.91909651  0.65087879    -0.12400
C1540       C  0.86436016  0.92725692  0.62338649     0.18500
C1541       C  0.86434161  0.95850817  0.61335113    -0.09400
C1542       C  0.85115697  0.98130890  0.63249954    -0.02400
H1543       H  0.84569018  0.89466367  0.65763099     0.05000
C1544       C  0.88177438  0.90320705  0.60564322     0.20500
H1545       H  0.85092416  0.00473765  0.62288347     0.10200
C1546       C  0.87167972  0.89433323  0.57564125    -0.15800
C1547       C  0.88881248  0.87313489  0.55762547     0.03200
C1548       C  0.91619763  0.85998755  0.56980605    -0.11100
C1549       C  0.92617046  0.86856054  0.59989724    -0.01100
C1550       C  0.90936329  0.89021024  0.61771230    -0.06300
H1551       H  0.85061415  0.90426991  0.56606249     0.06200
H1552       H  0.94728923  0.85864847  0.60940239     0.09600
Br1553     Br  0.88436193  0.97182392  0.57482145    -0.06000
Br1554     Br  0.81154061  0.92626038  0.70570190    -0.02900
Br1555     Br  0.87389837  0.86273833  0.51659329    -0.00100
Br1556     Br  0.92575397  0.90243665  0.65773768    -0.04400
C1557       C  0.05660949  0.86243415  0.57379399    -0.11800
C1558       C  0.08937761  0.86426700  0.57721123     0.03600
C1559       C  0.10253970  0.88651768  0.59724884    -0.12400
C1560       C  0.08343707  0.90656125  0.61458448     0.18500
C1561       C  0.05062038  0.90385245  0.61218232    -0.09400
C1562       C  0.03744014  0.88209541  0.59157031    -0.02400
H1563       H  0.12778959  0.88870321  0.59878178     0.05000
C1564       C  0.09818427  0.93242942  0.63209427     0.20500
H1565       H  0.01218318  0.88009948  0.58985202     0.10200
C1566       C  0.09434446  0.96278588  0.62101639    -0.15800
C1567       C  0.10727357  0.98849346  0.63655481     0.03200
C1568       C  0.12847947  0.98388912  0.66222435    -0.11100
C1569       C  0.12951923  0.95302374  0.67449118    -0.01100
C1570       C  0.11525473  0.92756460  0.65952409    -0.06300
H1571       H  0.07950886  0.96656000  0.60084644     0.06200
H1572       H  0.14258894  0.94832447  0.69547733     0.09600
Br1573     Br  0.02304756  0.92879713  0.63722320    -0.06000
Br1574     Br  0.11721450  0.83801421  0.55388646    -0.02900
Br1575     Br  0.08721005  0.02655748  0.62391522    -0.00100
Br1576     Br  0.11931440  0.88668426  0.67766449    -0.04400
C1577       C  0.13709141  0.77383083  0.48969538    -0.11800
C1578       C  0.15188955  0.79068185  0.46468136     0.03600
C1579       C  0.18391381  0.79795430  0.46594803    -0.12400
C1580       C  0.20222498  0.78814480  0.49119163     0.18500
C1581       C  0.18773819  0.77088873  0.51587128    -0.09400
C1582       C  0.15553437  0.76418721  0.51508333    -0.02400
H1583       H  0.19463390  0.81165443  0.44709308     0.05000
C1584       C  0.23606786  0.79703679  0.49167661     0.20500
H1585       H  0.14491728  0.75107476  0.53439919     0.10200
C1586       C  0.24767032  0.81466604  0.51665380    -0.15800
C1587       C  0.27959459  0.82240284  0.51923565     0.03200
C1588       C  0.30120064  0.81451430  0.49438087    -0.11100
C1589       C  0.28834553  0.79742907  0.46887948    -0.01100
C1590       C  0.25681906  0.78834256  0.46763583    -0.06300
H1591       H  0.23163744  0.82143385  0.53522857     0.06200
H1592       H  0.30336146  0.79017614  0.44972275     0.09600
Br1593     Br  0.21093281  0.75486383  0.55070598    -0.06000
Br1594     Br  0.13024840  0.80597813  0.42847664    -0.02900
Br1595     Br  0.28885788  0.83970282  0.55995104    -0.00100
Br1596     Br  0.24393606  0.76207832  0.43349322    -0.04400
C1597       C  0.35072441  0.78484705  0.49084942    -0.11800
C1598       C  0.34583753  0.76092677  0.51414821     0.03600
C1599       C  0.35817952  0.73097557  0.50982229    -0.12400
C1600       C  0.37360305  0.72309025  0.48189550     0.18500
C1601       C  0.37568385  0.74495495  0.45751913    -0.09400
C1602       C  0.36406383  0.77484338  0.46178602    -0.02400
H1603       H  0.35567147  0.71361955  0.52838605     0.05000
C1604       C  0.38890792  0.69258139  0.47887181     0.20500
H1605       H  0.36530229  0.78978978  0.44129237     0.10200
C1606       C  0.37275697  0.66696261  0.46578340    -0.15800
C1607       C  0.38715647  0.63777510  0.46299618     0.03200
C1608       C  0.41788754  0.63409186  0.47390457    -0.11100
C1609       C  0.43434713  0.66029226  0.48550216    -0.01100
C1610       C  0.42023266  0.68935004  0.48782805    -0.06300
H1611       H  0.34885417  0.66962989  0.45806279     0.06200
H1612       H  0.45816972  0.65789342  0.49364719     0.09600
Br1613     Br  0.39449045  0.73500175  0.41771236    -0.06000
Br1614     Br  0.32230852  0.76608620  0.55240046    -0.02900
Br1615     Br  0.36353386  0.60348147  0.44595274    -0.00100
Br1616     Br  0.44448710  0.72394392  0.50371572    -0.04400
C1617       C  0.30716834  0.20770890  0.49503435    -0.11800
C1618       C  0.29130674  0.21989931  0.46823102     0.03600
C1619       C  0.25965987  0.22827133  0.47011162    -0.12400
C1620       C  0.24265552  0.22591975  0.49826922     0.18500
C1621       C  0.25771239  0.21478472  0.52507564    -0.09400
C1622       C  0.28931267  0.20666811  0.52357227    -0.02400
H1623       H  0.24815562  0.23697035  0.44930093     0.05000
C1624       C  0.20889760  0.23395779  0.49889528     0.20500
H1625       H  0.29956876  0.20030209  0.54570291     0.10200
C1626       C  0.18730061  0.21304775  0.48564831    -0.15800
C1627       C  0.15522084  0.21918561  0.48621306     0.03200
C1628       C  0.14391788  0.24669746  0.50025671    -0.11100
C1629       C  0.16557199  0.26771928  0.51360171    -0.01100
C1630       C  0.19787639  0.26172434  0.51264492    -0.06300
H1631       H  0.19544175  0.19157799  0.47514487     0.06200
H1632       H  0.15740447  0.28908174  0.52427562     0.09600
Br1633     Br  0.23580110  0.20969514  0.56444904    -0.06000
Br1634     Br  0.31020979  0.22668384  0.42773158    -0.02900
Br1635     Br  0.12787378  0.18806379  0.46910837    -0.00100
Br1636     Br  0.22624343  0.29247384  0.52931750    -0.04400
C1637       C  0.36095767  0.23089051  0.48643740    -0.11800
C1638       C  0.38230287  0.23690555  0.46045095     0.03600
C1639       C  0.39961753  0.26494238  0.45899230    -0.12400
C1640       C  0.39470291  0.28886324  0.48037524     0.18500
C1641       C  0.37055391  0.28544916  0.50280169    -0.09400
C1642       C  0.35382316  0.25706920  0.50539523    -0.02400
H1643       H  0.41648448  0.26876015  0.44007601     0.05000
C1644       C  0.41336399  0.31818274  0.47705712     0.20500
H1645       H  0.33663778  0.25473702  0.52418062     0.10200
C1646       C  0.39900863  0.34456003  0.46451987    -0.15800
C1647       C  0.41514711  0.37313334  0.46236133     0.03200
C1648       C  0.44625332  0.37584740  0.47305837    -0.11100
C1649       C  0.46139537  0.34895426  0.48376513    -0.01100
C1650       C  0.44519436  0.32009837  0.48558600    -0.06300
H1651       H  0.37490071  0.34302213  0.45690225     0.06200
H1652       H  0.48517225  0.35071611  0.49228624     0.09600
Br1653     Br  0.36157445  0.31779688  0.53244473    -0.06000
Br1654     Br  0.38796441  0.21316250  0.42238042    -0.02900
Br1655     Br  0.39332583  0.40804232  0.44504188    -0.00100
Br1656     Br  0.46674636  0.28436657  0.50145555    -0.04400
C1657       C  0.73092111  0.36474929  0.99048600    -0.11800
C1658       C  0.71600274  0.34868382  0.01588230     0.03600
C1659       C  0.70852739  0.31687484  0.01336985    -0.12400
C1660       C  0.71675359  0.29967089  0.98667700     0.18500
C1661       C  0.73145907  0.31557882  0.96114304    -0.09400
C1662       C  0.73815680  0.34772731  0.96319661    -0.02400
H1663       H  0.69627436  0.30530887  0.03272082     0.05000
C1664       C  0.70981079  0.26534519  0.98652800     0.20500
H1665       H  0.74938903  0.35941398  0.94332073     0.10200
C1666       C  0.69289183  0.25199161  0.96184128    -0.15800
C1667       C  0.68714434  0.21961084  0.96013853     0.03200
C1668       C  0.69492654  0.19964222  0.98609067    -0.11100
C1669       C  0.71196359  0.21388469  0.01074819    -0.01100
C1670       C  0.71974722  0.24568406  0.01098001    -0.06300
H1671       H  0.68527918  0.26683722  0.94276390     0.06200
H1672       H  0.72002952  0.19975460  0.03008401     0.09600
Br1673     Br  0.74394090  0.29489116  0.92316189    -0.06000
Br1674     Br  0.70390929  0.36807081  0.05465456    -0.02900
Br1675     Br  0.67456991  0.20660566  0.91875934    -0.00100
Br1676     Br  0.74582970  0.26017487  0.04465337    -0.04400
C1677       C  0.72597130  0.15254306  0.98495679    -0.11800
C1678       C  0.74452187  0.13934483  0.00940628     0.03600
C1679       C  0.77501670  0.12970531  0.00271661    -0.12400
C1680       C  0.78925299  0.13566948  0.97350280     0.18500
C1681       C  0.77314211  0.15279660  0.95094206    -0.09400
C1682       C  0.74228210  0.16147858  0.95694022    -0.02400
H1683       H  0.78832703  0.11834505  0.02096685     0.05000
C1684       C  0.82122307  0.12426675  0.96769250     0.20500
H1685       H  0.73029321  0.17396169  0.93861551     0.10200
C1686       C  0.82593612  0.09977854  0.94633353    -0.15800
C1687       C  0.85486745  0.08485041  0.94452611     0.03200
C1688       C  0.87894715  0.09387450  0.96508798    -0.11100
C1689       C  0.87489889  0.11978879  0.98466175    -0.01100
C1690       C  0.84646675  0.13529976  0.98570501    -0.06300
H1691       H  0.80669352  0.09138634  0.93210087     0.06200
H1692       H  0.89357574  0.12720225  0.00014298     0.09600
Br1693     Br  0.79226179  0.16467467  0.91156818    -0.06000
Br1694     Br  0.73441505  0.13810267  0.05366576    -0.02900
Br1695     Br  0.85958161  0.05079862  0.91569936    -0.00100
Br1696     Br  0.84288148  0.17092800  0.01263677    -0.04400
C1697       C  0.24699940  0.36150201  0.98755878    -0.11800
C1698       C  0.25869251  0.34655264  0.96018608     0.03600
C1699       C  0.26687764  0.31507173  0.96168948    -0.12400
C1700       C  0.26168061  0.29730524  0.98908105     0.18500
C1701       C  0.24652943  0.31109866  0.01489506    -0.09400
C1702       C  0.23984838  0.34295631  0.01418506    -0.02400
H1703       H  0.27806925  0.30453934  0.94147434     0.05000
C1704       C  0.27426935  0.26529399  0.99098752     0.20500
H1705       H  0.22940588  0.35332571  0.03487622     0.10200
C1706       C  0.29628969  0.25838686  0.01408780    -0.15800
C1707       C  0.30940816  0.22862103  0.01684706     0.03200
C1708       C  0.30012782  0.20432808  0.99562334    -0.11100
C1709       C  0.28039513  0.21326031  0.97047973    -0.01100
C1710       C  0.26655829  0.24242826  0.96886093    -0.06300
H1711       H  0.30362473  0.27668691  0.03007436     0.06200
H1712       H  0.27332821  0.19622685  0.95310744     0.09600
Br1713     Br  0.23415928  0.28738583  0.05152628    -0.06000
Br1714     Br  0.26521976  0.36677263  0.91997955    -0.02900
Br1715     Br  0.34132981  0.22674670  0.04847006    -0.00100
Br1716     Br  0.23514126  0.24855584  0.93750692    -0.04400
C1717       C  0.27791706  0.14774288  0.99875406    -0.11800
C1718       C  0.27797873  0.11440893  0.99497128     0.03600
C1719       C  0.24977009  0.09770681  0.99070335    -0.12400
C1720       C  0.22100002  0.11279871  0.99146547     0.18500
C1721       C  0.22028611  0.14463736  0.99888054    -0.09400
C1722       C  0.24809882  0.16136919  0.00321932    -0.02400
H1723       H  0.25026651  0.07270249  0.98670626     0.05000
C1724       C  0.19148928  0.09461381  0.98855580     0.20500
H1725       H  0.24570232  0.18548527  0.01005989     0.10200
C1726       C  0.17444498  0.08826660  0.01603548    -0.15800
C1727       C  0.14460896  0.07487366  0.01488677     0.03200
C1728       C  0.13135655  0.06644105  0.98570316    -0.11100
C1729       C  0.14903669  0.07153177  0.95803960    -0.01100
C1730       C  0.17884057  0.08601189  0.95929163    -0.06300
H1731       H  0.18405476  0.09486819  0.03857868     0.06200
H1732       H  0.13917778  0.06550153  0.93547266     0.09600
Br1733     Br  0.18164651  0.16674399  0.00282506    -0.06000
Br1734     Br  0.31506789  0.08959360  0.99234971    -0.02900
Br1735     Br  0.12358850  0.06870533  0.05452971    -0.00100
Br1736     Br  0.20064597  0.09547553  0.92070105    -0.04400
C1737       C  0.84366721  0.76698197  0.49890729    -0.11800
C1738       C  0.82166067  0.75492998  0.47743644     0.03600
C1739       C  0.79063716  0.76517747  0.47857463    -0.12400
C1740       C  0.78126549  0.78810104  0.50016336     0.18500
C1741       C  0.80326601  0.79991430  0.52167696    -0.09400
C1742       C  0.83384083  0.78888171  0.52128062    -0.02400
H1743       H  0.77376838  0.75541503  0.46234571     0.05000
C1744       C  0.74841167  0.79896183  0.50035421     0.20500
H1745       H  0.85047843  0.79863949  0.53774748     0.10200
C1746       C  0.72990263  0.79459309  0.52735968    -0.15800
C1747       C  0.69872127  0.80420026  0.52860134     0.03200
C1748       C  0.68444125  0.81809304  0.50170042    -0.11100
C1749       C  0.70387503  0.82213857  0.47461833    -0.01100
C1750       C  0.73522757  0.81328086  0.47397685    -0.06300
H1751       H  0.73994915  0.78366839  0.54789190     0.06200
H1752       H  0.69485782  0.83080239  0.45274743     0.09600
Br1753     Br  0.79360234  0.83282424  0.55058145    -0.06000
Br1754     Br  0.83229138  0.72375616  0.44697544    -0.02900
Br1755     Br  0.67874548  0.79873356  0.56899974    -0.00100
Br1756     Br  0.75908703  0.82171256  0.43626429    -0.04400
C1757       C  0.63252125  0.79233646  0.50676822    -0.11800
C1758       C  0.63671695  0.76656304  0.48590579     0.03600
C1759       C  0.62106450  0.73788237  0.49151184    -0.12400
C1760       C  0.60035416  0.73374456  0.51703519     0.18500
C1761       C  0.59772734  0.75794021  0.53894818    -0.09400
C1762       C  0.61423849  0.78603286  0.53428204    -0.02400
H1763       H  0.62391885  0.71902145  0.47486942     0.05000
C1764       C  0.58064515  0.70478592  0.51960542     0.20500
H1765       H  0.61232188  0.80275281  0.55301591     0.10200
C1766       C  0.58234570  0.68545949  0.54646818    -0.15800
C1767       C  0.56408498  0.65792955  0.54911978     0.03200
C1768       C  0.54418815  0.64918308  0.52439889    -0.11100
C1769       C  0.54189281  0.66879215  0.49811763    -0.01100
C1770       C  0.55974477  0.69628896  0.49550089    -0.06300
H1771       H  0.59832726  0.69151387  0.56516364     0.06200
H1772       H  0.52710513  0.66185200  0.47871677     0.09600
Br1773     Br  0.57027395  0.75502787  0.57493578    -0.06000
Br1774     Br  0.65999751  0.76888779  0.44706486    -0.02900
Br1775     Br  0.56795579  0.63240054  0.58607883    -0.00100
Br1776     Br  0.55463990  0.72068421  0.45798248    -0.04400
C1777       C  0.68681489  0.82082968  0.99714118    -0.11800
C1778       C  0.70379604  0.80828806  0.02316343     0.03600
C1779       C  0.71320786  0.77688460  0.02332261    -0.12400
C1780       C  0.70740534  0.75723714  0.99779799     0.18500
C1781       C  0.69138626  0.76909366  0.97194390    -0.09400
C1782       C  0.68104897  0.79992070  0.97187974    -0.02400
H1783       H  0.72551140  0.76776411  0.04346110     0.05000
C1784       C  0.71620912  0.72378490  0.99896742     0.20500
H1785       H  0.67000209  0.80749151  0.95055333     0.10200
C1786       C  0.69466701  0.70213264  0.01182044    -0.15800
C1787       C  0.69998286  0.66996905  0.01019517     0.03200
C1788       C  0.72789273  0.65875284  0.99666548    -0.11100
C1789       C  0.74946872  0.68043652  0.98351346    -0.01100
C1790       C  0.74371086  0.71275712  0.98442590    -0.06300
H1791       H  0.67284168  0.71026204  0.02180974     0.06200
H1792       H  0.77069210  0.67222106  0.97236004     0.09600
Br1793     Br  0.68405343  0.74414295  0.93529773    -0.06000
Br1794     Br  0.71604294  0.83172320  0.05964469    -0.02900
Br1795     Br  0.66632200  0.64239642  0.02260666    -0.00100
Br1796     Br  0.77331198  0.74100896  0.96469488    -0.04400
C1797       C  0.85749574  0.95573490  0.01189197    -0.11800
C1798       C  0.83041614  0.97097409  0.00172785     0.03600
C1799       C  0.80213963  0.95419251  0.99970398    -0.12400
C1800       C  0.80040699  0.92233038  0.00775893     0.18500
C1801       C  0.82721455  0.90732219  0.01884164    -0.09400
C1802       C  0.85541896  0.92410911  0.02090982    -0.02400
H1803       H  0.78149978  0.96585886  0.99123109     0.05000
C1804       C  0.77025281  0.90543219  0.00467087     0.20500
H1805       H  0.87611674  0.91223069  0.02883186     0.10200
C1806       C  0.76604990  0.88384827  0.98051004    -0.15800
C1807       C  0.73724499  0.86833408  0.97625221     0.03200
C1808       C  0.71102569  0.87460847  0.99645354    -0.11100
C1809       C  0.71673432  0.89609671  0.02133373    -0.01100
C1810       C  0.74545103  0.91135891  0.02524163    -0.06300
H1811       H  0.78541509  0.87916648  0.96465676     0.06200
H1812       H  0.69967013  0.90053809  0.03946660     0.09600
Br1813     Br  0.82655579  0.86400501  0.03099859    -0.06000
Br1814     Br  0.83115153  0.01374567  0.98815262    -0.02900
Br1815     Br  0.73674571  0.83964149  0.94158919    -0.00100
Br1816     Br  0.75025112  0.93907085  0.06033560    -0.04400
C1817       C  0.25605525  0.65392905  0.00561253    -0.11800
C1818       C  0.23639201  0.67497954  0.98993034     0.03600
C1819       C  0.24368438  0.70700792  0.98989591    -0.12400
C1820       C  0.27093510  0.71823864  0.00440495     0.18500
C1821       C  0.29097281  0.69713142  0.01930239    -0.09400
C1822       C  0.28318684  0.66528409  0.02025472    -0.02400
H1823       H  0.22821401  0.72319680  0.97834991     0.05000
C1824       C  0.27791758  0.75210390  0.00445043     0.20500
H1825       H  0.29899888  0.64915348  0.03142358     0.10200
C1826       C  0.27364954  0.76875821  0.03215082    -0.15800
C1827       C  0.28087298  0.80071630  0.03375442     0.03200
C1828       C  0.29398542  0.81710927  0.00708015    -0.11100
C1829       C  0.29569727  0.79982244  0.97865735    -0.01100
C1830       C  0.28863000  0.76784933  0.97744021    -0.06300
H1831       H  0.26467852  0.75661360  0.05288212     0.06200
H1832       H  0.30195765  0.81079745  0.95656335     0.09600
Br1833     Br  0.33010176  0.71059418  0.03687498    -0.06000
Br1834     Br  0.19918394  0.66127332  0.96875055    -0.02900
Br1835     Br  0.27294743  0.81842196  0.07431644    -0.00100
Br1836     Br  0.29439777  0.74646312  0.93831476    -0.04400
C1837       C  0.26697932  0.86703702  0.01394772    -0.11800
C1838       C  0.25688981  0.88470988  0.04094831     0.03600
C1839       C  0.22564565  0.89376566  0.04387501    -0.12400
C1840       C  0.20330276  0.88603556  0.02150996     0.18500
C1841       C  0.21232600  0.86871761  0.99522257    -0.09400
C1842       C  0.24330718  0.85905314  0.99197067    -0.02400
H1843       H  0.21849592  0.90754218  0.06396106     0.05000
C1844       C  0.17240455  0.90104461  0.02368001     0.20500
H1845       H  0.24926997  0.84569564  0.97127420     0.10200
C1846       C  0.17153160  0.93302807  0.01726687    -0.15800
C1847       C  0.14343134  0.94890349  0.01795121     0.03200
C1848       C  0.11503807  0.93298254  0.02527966    -0.11100
C1849       C  0.11593076  0.90102777  0.03324788    -0.01100
C1850       C  0.14451412  0.88498023  0.03251010    -0.06300
H1851       H  0.19295013  0.94568809  0.01109556     0.06200
H1852       H  0.09438814  0.88831328  0.03868638     0.09600
Br1853     Br  0.18363606  0.85956695  0.96200496    -0.06000
Br1854     Br  0.28011464  0.89672954  0.07771624    -0.02900
Br1855     Br  0.14575426  0.99251386  0.00816293    -0.00100
Br1856     Br  0.14458579  0.84138372  0.04326747    -0.04400
C1857       C  0.34948762  0.00907985  0.26461047    -0.11800
C1858       C  0.33319899  0.98145221  0.27482239     0.03600
C1859       C  0.30146967  0.98267626  0.28400444    -0.12400
C1860       C  0.28514228  0.01086585  0.28361744     0.18500
C1861       C  0.30123795  0.03840726  0.27426374    -0.09400
C1862       C  0.33277976  0.03736465  0.26482459    -0.02400
H1863       H  0.28926459  0.96131100  0.29106765     0.05000
C1864       C  0.25067516  0.01075844  0.28977683     0.20500
H1865       H  0.34424935  0.05908788  0.25771006     0.10200
C1866       C  0.23838940  0.00889292  0.32043906    -0.15800
C1867       C  0.20580436  0.00986011  0.32635359     0.03200
C1868       C  0.18420197  0.01372713  0.30111276    -0.11100
C1869       C  0.19758393  0.01322640  0.27030780    -0.01100
C1870       C  0.22980484  0.01215027  0.26471008    -0.06300
H1871       H  0.25430103  0.00682250  0.33998085     0.06200
H1872       H  0.18335738  0.01292309  0.24955426     0.09600
Br1873     Br  0.28090726  0.07814417  0.27415835    -0.06000
Br1874     Br  0.35219959  0.94110403  0.27783764    -0.02900
Br1875     Br  0.19350813  0.00583308  0.36979428    -0.00100
Br1876     Br  0.24426696  0.01173691  0.22181938    -0.04400
C1877       C  0.64250203  0.02271154  0.26216351    -0.11800
C1878       C  0.65203096  0.02543242  0.29363113     0.03600
C1879       C  0.68382040  0.02443171  0.30085971    -0.12400
C1880       C  0.70643846  0.02134712  0.27699548     0.18500
C1881       C  0.69687520  0.01965092  0.24541087    -0.09400
C1882       C  0.66498936  0.02003236  0.23822797    -0.02400
H1883       H  0.69093554  0.02576402  0.32519665     0.05000
C1884       C  0.73976671  0.01903680  0.28560722     0.20500
H1885       H  0.65772743  0.01826453  0.21396630     0.10200
C1886       C  0.75553139  0.99124848  0.27988902    -0.15800
C1887       C  0.78720397  0.98807777  0.28721639     0.03200
C1888       C  0.80411676  0.01296354  0.30217468    -0.11100
C1889       C  0.78735587  0.04104776  0.30729448    -0.01100
C1890       C  0.75592952  0.04411517  0.29930333    -0.06300
H1891       H  0.74305366  0.97185093  0.26915523     0.06200
H1892       H  0.79864726  0.06181582  0.31633450     0.09600
Br1893     Br  0.72653317  0.01775549  0.21134177    -0.06000
Br1894     Br  0.62241409  0.02969485  0.32755542    -0.02900
Br1895     Br  0.80448803  0.94858176  0.27529865    -0.00100
Br1896     Br  0.73661675  0.08390840  0.30570624    -0.04400
C1897       C  0.42395175  0.93319446  0.34722377    -0.11800
C1898       C  0.42164774  0.90041454  0.34380018     0.03600
C1899       C  0.40375953  0.88269955  0.36521580    -0.12400
C1900       C  0.38783818  0.89712417  0.38998189     0.18500
C1901       C  0.38957366  0.92984825  0.39311291    -0.09400
C1902       C  0.40745459  0.94765260  0.37166074    -0.02400
H1903       H  0.40308019  0.85743220  0.36319271     0.05000
C1904       C  0.37407463  0.87725481  0.41501105     0.20500
H1905       H  0.40829416  0.97282864  0.37390914     0.10200
C1906       C  0.39441340  0.86415286  0.43649320    -0.15800
C1907       C  0.38341888  0.84510942  0.46092735     0.03200
C1908       C  0.35046665  0.83902277  0.46511887    -0.11100
C1909       C  0.33029360  0.85211843  0.44236452    -0.01100
C1910       C  0.34189457  0.87077492  0.41753059    -0.06300
H1911       H  0.41938349  0.86862702  0.43397431     0.06200
H1912       H  0.30522042  0.84921463  0.44407254     0.09600
Br1913     Br  0.36908813  0.95089143  0.42709608    -0.06000
Br1914     Br  0.44406319  0.87831107  0.31170218    -0.02900
Br1915     Br  0.41630600  0.82711403  0.48549012    -0.00100
Br1916     Br  0.31309801  0.88697011  0.38746746    -0.04400
C1917       C  0.63800698  0.84160641  0.46945214    -0.11800
C1918       C  0.61064712  0.83393934  0.45144626     0.03600
C1919       C  0.60212327  0.85281948  0.42592968    -0.12400
C1920       C  0.61823421  0.88060793  0.41845292     0.18500
C1921       C  0.64419514  0.88928113  0.43644708    -0.09400
C1922       C  0.65351070  0.87027734  0.46138736    -0.02400
H1923       H  0.58116040  0.84690068  0.41293433     0.05000
C1924       C  0.60508652  0.90173575  0.39424404     0.20500
H1925       H  0.67307338  0.87844411  0.47517680     0.10200
C1926       C  0.59195402  0.93011902  0.40357321    -0.15800
C1927       C  0.57677656  0.94947252  0.38201407     0.03200
C1928       C  0.57349577  0.94002235  0.35031177    -0.11100
C1929       C  0.58786393  0.91201958  0.34094061    -0.01100
C1930       C  0.60355330  0.89309083  0.36246187    -0.06300
H1931       H  0.59337528  0.93719901  0.42793875     0.06200
H1932       H  0.58668789  0.90447331  0.31673444     0.09600
Br1933     Br  0.66760477  0.92717802  0.42814262    -0.06000
Br1934     Br  0.57880834  0.80300720  0.46145716    -0.02900
Br1935     Br  0.56301206  0.98908521  0.39752372    -0.00100
Br1936     Br  0.62325077  0.85599739  0.34727861    -0.04400
C1937       C  0.41744215  0.07736955  0.35494500    -0.11800
C1938       C  0.41517912  0.06475243  0.38586822     0.03600
C1939       C  0.39636291  0.07922160  0.40835624    -0.12400
C1940       C  0.37994682  0.10640872  0.40119598     0.18500
C1941       C  0.38136863  0.11848364  0.37035427    -0.09400
C1942       C  0.39965800  0.10381855  0.34760052    -0.02400
H1943       H  0.39585552  0.07017939  0.43221835     0.05000
C1944       C  0.36832012  0.12560273  0.42745104     0.20500
H1945       H  0.40085102  0.11406818  0.32427420     0.10200
C1946       C  0.39055862  0.13756309  0.44801057    -0.15800
C1947       C  0.38299870  0.16032716  0.46989360     0.03200
C1948       C  0.35193463  0.17258537  0.47143382    -0.11100
C1949       C  0.32883405  0.15670224  0.45347906    -0.01100
C1950       C  0.33688371  0.13389754  0.43135050    -0.06300
H1951       H  0.41473752  0.13048611  0.44565693     0.06200
H1952       H  0.30430652  0.16175523  0.45620322     0.09600
Br1953     Br  0.36149732  0.15670406  0.35858696    -0.06000
Br1954     Br  0.43734607  0.02865765  0.40029430    -0.02900
Br1955     Br  0.41873646  0.17567529  0.49250850    -0.00100
Br1956     Br  0.30429612  0.11410221  0.40753577    -0.04400
C1957       C  0.49326996  0.32541946  0.19983301    -0.11800
C1958       C  0.49881979  0.31408206  0.23124644     0.03600
C1959       C  0.49579692  0.28206245  0.23825077    -0.12400
C1960       C  0.48971440  0.26007123  0.21495537     0.18500
C1961       C  0.48645245  0.27034725  0.18383915    -0.09400
C1962       C  0.48931079  0.30221120  0.17652837    -0.02400
H1963       H  0.49996034  0.27391300  0.26200554     0.05000
C1964       C  0.49025928  0.22635095  0.22320930     0.20500
H1965       H  0.48723232  0.30893963  0.15219222     0.10200
C1966       C  0.46580718  0.21281659  0.24121029    -0.15800
C1967       C  0.46600294  0.18095386  0.24944790     0.03200
C1968       C  0.49136113  0.16215022  0.23985938    -0.11100
C1969       C  0.51615168  0.17623889  0.22264069    -0.01100
C1970       C  0.51577860  0.20785928  0.21435723    -0.06300
H1971       H  0.44640822  0.22708625  0.24872173     0.06200
H1972       H  0.53580368  0.16245021  0.21487046     0.09600
Br1973     Br  0.47734266  0.24167032  0.15048950    -0.06000
Br1974     Br  0.51568297  0.33735919  0.26608334    -0.02900
Br1975     Br  0.43153556  0.16516112  0.27462195    -0.00100
Br1976     Br  0.55105357  0.22476809  0.19123379    -0.04400
C1977       C  0.50152098  0.86876854  0.23487788    -0.11800
C1978       C  0.51607177  0.84714701  0.25495770     0.03600
C1979       C  0.51640803  0.81521307  0.24704607    -0.12400
C1980       C  0.50275726  0.80455499  0.21902544     0.18500
C1981       C  0.48810887  0.82620738  0.19922550    -0.09400
C1982       C  0.48734043  0.85783986  0.20734851    -0.02400
H1983       H  0.52708304  0.79864455  0.26286621     0.05000
C1984       C  0.50174103  0.77063853  0.21152149     0.20500
H1985       H  0.47574823  0.87410358  0.19189021     0.10200
C1986       C  0.47868067  0.75168448  0.22565227    -0.15800
C1987       C  0.47524899  0.72001159  0.21791751     0.03200
C1988       C  0.49546950  0.70588645  0.19505985    -0.11100
C1989       C  0.51817589  0.72595902  0.18046383    -0.01100
C1990       C  0.52157923  0.75759448  0.18876485    -0.06300
H1991       H  0.46280709  0.76181317  0.24267333     0.06200
H1992       H  0.53516855  0.71696624  0.16408792     0.09600
Br1993     Br  0.46811374  0.81338693  0.16113257    -0.06000
Br1994     Br  0.53362767  0.85985371  0.29428183    -0.02900
Br1995     Br  0.44085598  0.69871316  0.23898976    -0.00100
Br1996     Br  0.55500098  0.78185858  0.16982381    -0.04400
C1997       C  0.57586058  0.09226374  0.14476741    -0.11800
C1998       C  0.60510459  0.10716089  0.15137409     0.03600
C1999       C  0.62293836  0.12112389  0.12700773    -0.12400
C2000       C  0.61256375  0.12074571  0.09590116     0.18500
C2001       C  0.58324453  0.10695911  0.08931983    -0.09400
C2002       C  0.56525288  0.09303317  0.11349907    -0.02400
H2003       H  0.64561089  0.13148918  0.13220313     0.05000
C2004       C  0.63377862  0.13214884  0.07024917     0.20500
H2005       H  0.54289774  0.08241517  0.10759412     0.10200
C2006       C  0.64872431  0.11026105  0.05137425    -0.15800
C2007       C  0.66838954  0.11944133  0.02633207     0.03200
C2008       C  0.67384817  0.15186460  0.01905012    -0.11100
C2009       C  0.65814780  0.17360334  0.03870281    -0.01100
C2010       C  0.63912795  0.16406641  0.06417918    -0.06300
H2011       H  0.64496084  0.08554915  0.05622595     0.06200
H2012       H  0.65896019  0.19838476  0.03385679     0.09600
Br2013     Br  0.56694086  0.10641612  0.04745313    -0.06000
Br2014     Br  0.62382511  0.10789769  0.19227673    -0.02900
Br2015     Br  0.68727471  0.08526172  0.00475109    -0.00100
Br2016     Br  0.61964739  0.19561350  0.08920198    -0.04400
C2017       C  0.65529246  0.86843014  0.02007210    -0.11800
C2018       C  0.64451867  0.90010888  0.02029135     0.03600
C2019       C  0.62641860  0.91102551  0.04519387    -0.12400
C2020       C  0.61775404  0.89171518  0.07036630     0.18500
C2021       C  0.62498329  0.85981123  0.06915679    -0.09400
C2022       C  0.64342778  0.84846499  0.04433062    -0.02400
H2023       H  0.61995270  0.93545600  0.04557806     0.05000
C2024       C  0.60248142  0.90647874  0.09781704     0.20500
H2025       H  0.64829372  0.82377694  0.04441921     0.10200
C2026       C  0.57076765  0.90027544  0.10458852    -0.15800
C2027       C  0.55499252  0.91743293  0.12763258     0.03200
C2028       C  0.57067339  0.94191094  0.14337383    -0.11100
C2029       C  0.60265064  0.94717545  0.13761440    -0.01100
C2030       C  0.61863743  0.92955544  0.11521146    -0.06300
H2031       H  0.55819316  0.88236842  0.09167848     0.06200
H2032       H  0.61518851  0.96513847  0.15050427     0.09600
Br2033     Br  0.61083036  0.83099798  0.10116701    -0.06000
Br2034     Br  0.65572294  0.93226266  0.99015591    -0.02900
Br2035     Br  0.51274294  0.90546682  0.13821836    -0.00100
Br2036     Br  0.66271807  0.93750756  0.10946051    -0.04400
C2037       C  0.42398938  0.94394110  0.14086453    -0.11800
C2038       C  0.43367259  0.94278978  0.10886403     0.03600
C2039       C  0.41549781  0.92629153  0.08715611    -0.12400
C2040       C  0.38738738  0.91142462  0.09627696     0.18500
C2041       C  0.37741739  0.91283100  0.12778282    -0.09400
C2042       C  0.39571262  0.92869492  0.14970384    -0.02400
H2043       H  0.42305249  0.92547607  0.06278415     0.05000
C2044       C  0.36794930  0.89587549  0.07233895     0.20500
H2045       H  0.38724189  0.92960298  0.17375924     0.10200
C2046       C  0.36493003  0.86329265  0.07229232    -0.15800
C2047       C  0.34503212  0.84768828  0.05128114     0.03200
C2048       C  0.32584270  0.86550347  0.03034619    -0.11100
C2049       C  0.33190634  0.89832808  0.02916300    -0.01100
C2050       C  0.35211775  0.91335950  0.04986094    -0.06300
H2051       H  0.37851880  0.84983747  0.08880218     0.06200
H2052       H  0.31885004  0.91305465  0.01341898     0.09600
Br2053     Br  0.33818264  0.89491574  0.14178621    -0.06000
Br2054     Br  0.47086037  0.96308245  0.09228777    -0.02900
Br2055     Br  0.34981171  0.80291070  0.05304774    -0.00100
Br2056     Br  0.35446787  0.95826518  0.04875595    -0.04400
C2057       C  0.41828812  0.08490792  0.14583065    -0.11800
C2058       C  0.40451560  0.06845478  0.12079404     0.03600
C2059       C  0.38680301  0.08440797  0.09865038    -0.12400
C2060       C  0.38268280  0.11684050  0.10064222     0.18500
C2061       C  0.39548082  0.13320470  0.12628378    -0.09400
C2062       C  0.41303327  0.11715379  0.14868999    -0.02400
H2063       H  0.37633015  0.07145122  0.07950866     0.05000
C2064       C  0.36553254  0.13274763  0.07516376     0.20500
H2065       H  0.42316894  0.13001971  0.16807181     0.10200
C2066       C  0.33632507  0.14589345  0.08121726    -0.15800
C2067       C  0.31810064  0.15814339  0.05686897     0.03200
C2068       C  0.32925456  0.15810576  0.02498522    -0.11100
C2069       C  0.35883225  0.14408499  0.01988027    -0.01100
C2070       C  0.37675552  0.13210837  0.04415684    -0.06300
H2071       H  0.32724381  0.14592945  0.10508974     0.06200
H2072       H  0.36812970  0.13994794  0.99679499     0.09600
Br2073     Br  0.39071413  0.17747628  0.13110711    -0.06000
Br2074     Br  0.40741934  0.02398304  0.11661501    -0.02900
Br2075     Br  0.27872465  0.17494170  0.07026496    -0.00100
Br2076     Br  0.41629778  0.11398718  0.03313704    -0.04400
C2077       C  0.68386380  0.21324094  0.49689763    -0.11800
C2078       C  0.69957668  0.23285078  0.47400455     0.03600
C2079       C  0.73212888  0.23783063  0.47492221    -0.12400
C2080       C  0.75044048  0.22413391  0.49812580     0.18500
C2081       C  0.73575238  0.20465679  0.52059902    -0.09400
C2082       C  0.70326106  0.19995269  0.52029726    -0.02400
H2083       H  0.74327909  0.25316257  0.45762595     0.05000
C2084       C  0.78458542  0.23154070  0.49930962     0.20500
H2085       H  0.69367034  0.18636057  0.53959637     0.10200
C2086       C  0.79649801  0.24931806  0.52426238    -0.15800
C2087       C  0.82855869  0.25679914  0.52612411     0.03200
C2088       C  0.84948871  0.24689537  0.50229972    -0.11100
C2089       C  0.83724533  0.22935107  0.47718268    -0.01100
C2090       C  0.80533301  0.22144441  0.47573280    -0.06300
H2091       H  0.78069256  0.25742524  0.54244280     0.06200
H2092       H  0.85273561  0.22090187  0.45890807     0.09600
Br2093     Br  0.75922460  0.18352409  0.55230898    -0.06000
Br2094     Br  0.67915537  0.25527289  0.44097608    -0.02900
Br2095     Br  0.84164085  0.28149416  0.56120580    -0.00100
Br2096     Br  0.79139593  0.19523353  0.44208546    -0.04400
C2097       C  0.56076948  0.09741136  0.35264226    -0.11800
C2098       C  0.56522295  0.13007417  0.34801242     0.03600
C2099       C  0.58014200  0.14811138  0.37099625    -0.12400
C2100       C  0.59067372  0.13442448  0.39884516     0.18500
C2101       C  0.58586479  0.10209651  0.40379461    -0.09400
C2102       C  0.57098075  0.08394235  0.38086585    -0.02400
H2103       H  0.58315107  0.17310061  0.36734789     0.05000
C2104       C  0.60503171  0.15463198  0.42312999     0.20500
H2105       H  0.56792486  0.05905676  0.38488407     0.10200
C2106       C  0.58642136  0.16511596  0.44788232    -0.15800
C2107       C  0.59869539  0.18442601  0.47136406     0.03200
C2108       C  0.63117387  0.19384463  0.47090449    -0.11100
C2109       C  0.64934931  0.18304210  0.44510043    -0.01100
C2110       C  0.63657061  0.16409932  0.42152700    -0.06300
H2111       H  0.56186514  0.15832562  0.44880881     0.06200
H2112       H  0.67418388  0.18754984  0.44353552     0.09600
Br2113     Br  0.59975712  0.08167415  0.44126610    -0.06000
Br2114     Br  0.54973520  0.15213774  0.31203425    -0.02900
Br2115     Br  0.56805378  0.19793489  0.50168240    -0.00100
Br2116     Br  0.66357382  0.15019253  0.38829608    -0.04400
C2117       C  0.59067782  0.40331711  0.52230345    -0.11800
C2118       C  0.59373537  0.38573593  0.55032786     0.03600
C2119       C  0.60673480  0.35576589  0.54901528    -0.12400
C2120       C  0.61968480  0.34447354  0.52083921     0.18500
C2121       C  0.62264168  0.36508219  0.49497648    -0.09400
C2122       C  0.60736974  0.39367900  0.49549301    -0.02400
H2123       H  0.60560340  0.34088991  0.56969572     0.05000
C2124       C  0.62562456  0.31049046  0.51678582     0.20500
H2125       H  0.60762260  0.40797257  0.47436138     0.10200
C2126       C  0.61022798  0.29483952  0.49246577    -0.15800
C2127       C  0.61602546  0.26353834  0.48516896     0.03200
C2128       C  0.63656021  0.24554381  0.50449942    -0.11100
C2129       C  0.65124730  0.26197662  0.52957586    -0.01100
C2130       C  0.64615960  0.29364082  0.53566716    -0.06300
H2131       H  0.59425164  0.30783034  0.47787888     0.06200
H2132       H  0.66732864  0.24987395  0.54474310     0.09600
Br2133     Br  0.64642920  0.35471345  0.45801592    -0.06000
Br2134     Br  0.58126234  0.40111367  0.59074836    -0.02900
Br2135     Br  0.59718608  0.25180727  0.44585327    -0.00100
Br2136     Br  0.66922229  0.31291035  0.56904708    -0.04400
C2137       C  0.34163904  0.00864228  0.73401549    -0.11800
C2138       C  0.33174876  0.01709020  0.70369588     0.03600
C2139       C  0.29998443  0.01608322  0.69634702    -0.12400
C2140       C  0.27767340  0.00563120  0.71847491     0.18500
C2141       C  0.28758134  0.99542833  0.74829110    -0.09400
C2142       C  0.31945577  0.99719025  0.75596825    -0.02400
H2143       H  0.29265909  0.02301396  0.67304332     0.05000
C2144       C  0.24431977  0.00553664  0.70951752     0.20500
H2145       H  0.32697218  0.98929978  0.77889009     0.10200
C2146       C  0.23308151  0.98292832  0.68870282    -0.15800
C2147       C  0.20211949  0.98303628  0.67779389     0.03200
C2148       C  0.18089192  0.00657212  0.68862121    -0.11100
C2149       C  0.19375146  0.02993972  0.70865564    -0.01100
C2150       C  0.22454961  0.02945815  0.71909807    -0.06300
H2151       H  0.24895083  0.96514496  0.68045468     0.06200
H2152       H  0.17921404  0.04853797  0.71736405     0.09600
Br2153     Br  0.25860251  0.97772007  0.77845084    -0.06000
Br2154     Br  0.36088705  0.02707239  0.67048503    -0.02900
Br2155     Br  0.19455655  0.95072561  0.64731144    -0.00100
Br2156     Br  0.23869142  0.06239338  0.74623587    -0.04400
C2157       C  0.79929135  0.00206623  0.69556911    -0.11800
C2158       C  0.78397938  0.99575510  0.72542690     0.03600
C2159       C  0.75142952  0.99801508  0.72847999    -0.12400
C2160       C  0.73231988  0.00482003  0.70308600     0.18500
C2161       C  0.74638512  0.00872204  0.67324253    -0.09400
C2162       C  0.77906538  0.00615606  0.66961860    -0.02400
H2163       H  0.74048989  0.99358057  0.75122611     0.05000
C2164       C  0.69796555  0.00753718  0.70935726     0.20500
H2165       H  0.78905604  0.00957687  0.64632698     0.10200
C2166       C  0.68776798  0.02982964  0.73126785    -0.15800
C2167       C  0.65648643  0.03056972  0.74168446     0.03200
C2168       C  0.63423932  0.00916215  0.72960710    -0.11100
C2169       C  0.64445204  0.98685816  0.70763798    -0.01100
C2170       C  0.67593406  0.98554100  0.69794661    -0.06300
H2171       H  0.70461079  0.04605925  0.74129287     0.06200
H2172       H  0.62789180  0.96998931  0.69818444     0.09600
Br2173     Br  0.72255968  0.02071674  0.63727004    -0.06000
Br2174     Br  0.80156927  0.97916315  0.76362476    -0.02900
Br2175     Br  0.64633891  0.05912003  0.77478957    -0.00100
Br2176     Br  0.68798138  0.95140483  0.67154063    -0.04400
C2177       C  0.41364871  0.08955747  0.64852572    -0.11800
C2178       C  0.38779013  0.10845843  0.65720871     0.03600
C2179       C  0.37286589  0.12633352  0.63436331    -0.12400
C2180       C  0.38266939  0.12547310  0.60298792     0.18500
C2181       C  0.40740890  0.10609043  0.59408579    -0.09400
C2182       C  0.42263460  0.08840921  0.61668813    -0.02400
H2183       H  0.35366159  0.14122298  0.64111464     0.05000
C2184       C  0.36876185  0.14668598  0.57993222     0.20500
H2185       H  0.44204505  0.07415476  0.60921443     0.10200
C2186       C  0.38241838  0.17617973  0.57557958    -0.15800
C2187       C  0.37496477  0.19518639  0.54990057     0.03200
C2188       C  0.35206801  0.18454256  0.52752150    -0.11100
C2189       C  0.33685048  0.15530738  0.53450476    -0.01100
C2190       C  0.34511020  0.13658356  0.55990439    -0.06300
H2191       H  0.40082350  0.18355546  0.59141939     0.06200
H2192       H  0.31888540  0.14627133  0.51906805     0.09600
Br2193     Br  0.42188106  0.10379376  0.55133986    -0.06000
Br2194     Br  0.37038920  0.11106234  0.69907243    -0.02900
Br2195     Br  0.40233561  0.23137561  0.54798088    -0.00100
Br2196     Br  0.32476930  0.09653196  0.56545466    -0.04400
C2197       C  0.63677520  0.18929323  0.52867468    -0.11800
C2198       C  0.64213818  0.15620575  0.52912014     0.03600
C2199       C  0.62863101  0.13698524  0.55254891    -0.12400
C2200       C  0.60989026  0.14933865  0.57631093     0.18500
C2201       C  0.60597169  0.18176595  0.57765907    -0.09400
C2202       C  0.61912207  0.20124263  0.55434912    -0.02400
H2203       H  0.63221869  0.11195511  0.55183221     0.05000
C2204       C  0.59343017  0.12801055  0.59878398     0.20500
H2205       H  0.61295804  0.22550655  0.55579094     0.10200
C2206       C  0.60883748  0.11784112  0.62576289    -0.15800
C2207       C  0.59341201  0.09869892  0.64806699     0.03200
C2208       C  0.56155739  0.09009404  0.64404934    -0.11100
C2209       C  0.54663680  0.09931064  0.61619319    -0.01100
C2210       C  0.56240833  0.11785876  0.59357499    -0.06300
H2211       H  0.63306656  0.12467985  0.62937807     0.06200
H2212       H  0.52252126  0.09235723  0.61210802     0.09600
Br2213     Br  0.58123278  0.20045164  0.61021488    -0.06000
Br2214     Br  0.66743561  0.13445275  0.49887246    -0.02900
Br2215     Br  0.61803390  0.08300477  0.68198936    -0.00100
Br2216     Br  0.54104619  0.12852145  0.55560832    -0.04400
C2217       C  0.56448414  0.94314866  0.64189778    -0.11800
C2218       C  0.57748136  0.95889478  0.61539689     0.03600
C2219       C  0.59431223  0.94202161  0.59288761    -0.12400
C2220       C  0.59878143  0.90979833  0.59672011     0.18500
C2221       C  0.58746536  0.89457198  0.62397448    -0.09400
C2222       C  0.57045143  0.91120489  0.64618229    -0.02400
H2223       H  0.60340122  0.95389332  0.57207127     0.05000
C2224       C  0.61222847  0.89145527  0.57089451     0.20500
H2225       H  0.56118131  0.89885391  0.66659691     0.10200
C2226       C  0.64463216  0.89034765  0.56635095    -0.15800
C2227       C  0.65787296  0.87074287  0.54356638     0.03200
C2228       C  0.63810326  0.85001033  0.52588860    -0.11100
C2229       C  0.60539417  0.85476844  0.52870200    -0.01100
C2230       C  0.59254733  0.87425828  0.55120698    -0.06300
H2231       H  0.65971197  0.90508833  0.58052445     0.06200
H2232       H  0.58926705  0.84171982  0.51425768     0.09600
Br2233     Br  0.59383171  0.85077195  0.63129762    -0.06000
Br2234     Br  0.57448277  0.00333497  0.60946239    -0.02900
Br2235     Br  0.70198980  0.87828183  0.53669855    -0.00100
Br2236     Br  0.54771101  0.87584440  0.55481183    -0.04400
C2237       C  0.35056937  0.83815195  0.52261113    -0.11800
C2238       C  0.34476940  0.87101409  0.52575439     0.03600
C2239       C  0.35943094  0.88856333  0.54914656    -0.12400
C2240       C  0.38004036  0.87484941  0.57006958     0.18500
C2241       C  0.38601816  0.84283716  0.56781210    -0.09400
C2242       C  0.37172340  0.82497975  0.54434882    -0.02400
H2243       H  0.35453510  0.91327984  0.55120038     0.05000
C2244       C  0.39451208  0.89450473  0.59448610     0.20500
H2245       H  0.37908075  0.80110551  0.54249523     0.10200
C2246       C  0.37861997  0.89831698  0.62306423    -0.15800
C2247       C  0.39074508  0.91784303  0.64637637     0.03200
C2248       C  0.41962809  0.93402284  0.64120537    -0.11100
C2249       C  0.43523005  0.93032543  0.61217336    -0.01100
C2250       C  0.42291125  0.91076028  0.58895677    -0.06300
H2251       H  0.35641450  0.88624927  0.62709109     0.06200
H2252       H  0.45740902  0.94224793  0.60764186     0.09600
Br2253     Br  0.41464243  0.82280197  0.59563999    -0.06000
Br2254     Br  0.31563953  0.89428440  0.50090975    -0.02900
Br2255     Br  0.36547163  0.92223084  0.68373593    -0.00100
Br2256     Br  0.44562515  0.90668507  0.55009433    -0.04400
C2257       C  0.49027480  0.15591415  0.76866325    -0.11800
C2258       C  0.48718566  0.16494208  0.80040126     0.03600
C2259       C  0.48696342  0.19676710  0.80844774    -0.12400
C2260       C  0.49050355  0.22013826  0.78531452     0.18500
C2261       C  0.49517747  0.21102611  0.75374544    -0.09400
C2262       C  0.49474149  0.17919750  0.74563567    -0.02400
H2263       H  0.48398365  0.20329953  0.83284781     0.05000
C2264       C  0.48873092  0.25380394  0.79423487     0.20500
H2265       H  0.49806573  0.17260634  0.72129566     0.10200
C2266       C  0.51165561  0.26765493  0.81330618    -0.15800
C2267       C  0.51137278  0.29988025  0.82047131     0.03200
C2268       C  0.48913408  0.31982292  0.80581310    -0.11100
C2269       C  0.46383611  0.30418594  0.79062157    -0.01100
C2270       C  0.46353758  0.27208746  0.78479696    -0.06300
H2271       H  0.52953839  0.25305958  0.82334375     0.06200
H2272       H  0.44471545  0.31746587  0.78130642     0.09600
Br2273     Br  0.50350663  0.24120955  0.72106730    -0.06000
Br2274     Br  0.48492654  0.13460964  0.83374759    -0.02900
Br2275     Br  0.53775872  0.31139680  0.85498190    -0.00100
Br2276     Br  0.42774912  0.25426983  0.76413162    -0.04400
C2277       C  0.48356673  0.86268469  0.75403104    -0.11800
C2278       C  0.50841108  0.84282894  0.74549250     0.03600
C2279       C  0.50705540  0.81107782  0.75377671    -0.12400
C2280       C  0.48128434  0.79833219  0.77029348     0.18500
C2281       C  0.45603066  0.81765203  0.77798068    -0.09400
C2282       C  0.45726431  0.84940139  0.76976037    -0.02400
H2283       H  0.52646571  0.79621686  0.74760072     0.05000
C2284       C  0.48242281  0.76536688  0.78097774     0.20500
H2285       H  0.43793679  0.86397024  0.77684200     0.10200
C2286       C  0.50202036  0.75768593  0.80587407    -0.15800
C2287       C  0.50520122  0.72667607  0.81618886     0.03200
C2288       C  0.48973145  0.70173066  0.79982043    -0.11100
C2289       C  0.46760218  0.71072308  0.77689459    -0.01100
C2290       C  0.46464996  0.74166125  0.76678884    -0.06300
H2291       H  0.51447950  0.77629241  0.81793016     0.06200
H2292       H  0.45342811  0.69309174  0.76542359     0.09600
Br2293     Br  0.42020599  0.80220445  0.80125819    -0.06000
Br2294     Br  0.54460453  0.85690082  0.72199143    -0.02900
Br2295     Br  0.52728434  0.72324100  0.85525204    -0.00100
Br2296     Br  0.43718808  0.75007568  0.73243651    -0.04400
C2297       C  0.32551531  0.16366605  0.96392150    -0.11800
C2298       C  0.35538845  0.17722173  0.95577257     0.03600
C2299       C  0.37283383  0.16471001  0.93098003    -0.12400
C2300       C  0.36018279  0.14089940  0.91252272     0.18500
C2301       C  0.32842087  0.13304944  0.91559258    -0.09400
C2302       C  0.31104370  0.14552357  0.94015431    -0.02400
H2303       H  0.39690594  0.17233983  0.92718676     0.05000
C2304       C  0.38061535  0.12252612  0.89210805     0.20500
H2305       H  0.28647374  0.13928847  0.94108376     0.10200
C2306       C  0.38839503  0.09217287  0.90170028    -0.15800
C2307       C  0.40534372  0.07258110  0.88185871     0.03200
C2308       C  0.41486429  0.08359592  0.85192197    -0.11100
C2309       C  0.40731800  0.11432423  0.84278031    -0.01100
C2310       C  0.39053631  0.13380580  0.86265387    -0.06300
H2311       H  0.38034068  0.08339129  0.92437908     0.06200
H2312       H  0.41435349  0.12328263  0.81985203     0.09600
Br2313     Br  0.30833800  0.10375794  0.88801040    -0.06000
Br2314     Br  0.37645883  0.20931419  0.97905434    -0.02900
Br2315     Br  0.41183076  0.03040883  0.89576314    -0.00100
Br2316     Br  0.38042236  0.17496576  0.84806948    -0.04400
C2317       C  0.40184409  0.93970407  0.84904160    -0.11800
C2318       C  0.37382499  0.92320554  0.84075158     0.03600
C2319       C  0.35438927  0.90986137  0.86427202    -0.12400
C2320       C  0.36197841  0.91237405  0.89610103     0.18500
C2321       C  0.38936687  0.92893522  0.90443955    -0.09400
C2322       C  0.40882207  0.94236202  0.88121205    -0.02400
H2323       H  0.33350809  0.89686450  0.85764981     0.05000
C2324       C  0.34321782  0.89510877  0.92038975     0.20500
H2325       H  0.42978997  0.95473336  0.88858343     0.10200
C2326       C  0.35665630  0.86934672  0.93481946    -0.15800
C2327       C  0.34309018  0.85509732  0.96138328     0.03200
C2328       C  0.31378305  0.86544260  0.97397913    -0.11100
C2329       C  0.29981082  0.89084786  0.95776092    -0.01100
C2330       C  0.31417943  0.90547165  0.93156108    -0.06300
H2331       H  0.37908141  0.86126086  0.92621916     0.06200
H2332       H  0.27873647  0.90148536  0.96647958     0.09600
Br2333     Br  0.40130322  0.93367530  0.94756455    -0.06000
Br2334     Br  0.35981021  0.91740885  0.79827715    -0.02900
Br2335     Br  0.36807664  0.82256690  0.97873596    -0.00100
Br2336     Br  0.29455908  0.94131603  0.91352712    -0.04400
C2337       C  0.56387101  0.93399744  0.84798828    -0.11800
C2338       C  0.57634686  0.94870898  0.87479837     0.03600
C2339       C  0.59575152  0.93213768  0.89500295    -0.12400
C2340       C  0.60365316  0.90105271  0.88884180     0.18500
C2341       C  0.59138338  0.88618113  0.86214982    -0.09400
C2342       C  0.57170576  0.90266925  0.84193643    -0.02400
H2343       H  0.60532211  0.94379733  0.91540817     0.05000
C2344       C  0.62468193  0.88501275  0.91095651     0.20500
H2345       H  0.56271221  0.89105616  0.82125110     0.10200
C2346       C  0.61209183  0.86313918  0.93220849    -0.15800
C2347       C  0.62968778  0.85195311  0.95734481     0.03200
C2348       C  0.66099949  0.86336857  0.96242653    -0.11100
C2349       C  0.67388855  0.88363006  0.93894470    -0.01100
C2350       C  0.65619665  0.89416593  0.91362151    -0.06300
H2351       H  0.58787448  0.85560447  0.92992328     0.06200
H2352       H  0.69700231  0.89375660  0.94098851     0.09600
Br2353     Br  0.60207817  0.84401826  0.85180643    -0.06000
Br2354     Br  0.57052170  0.99219292  0.88348740    -0.02900
Br2355     Br  0.60807579  0.82169849  0.98372067    -0.00100
Br2356     Br  0.67564863  0.92248884  0.88389739    -0.04400
C2357       C  0.56102875  0.08184586  0.85389307    -0.11800
C2358       C  0.55397043  0.08056925  0.88659898     0.03600
C2359       C  0.57334874  0.09646233  0.90786173    -0.12400
C2360       C  0.59881393  0.11492139  0.89726483     0.18500
C2361       C  0.60416397  0.11838899  0.86479846    -0.09400
C2362       C  0.58581849  0.10169370  0.84363779    -0.02400
H2363       H  0.56885213  0.09395841  0.93286670     0.05000
C2364       C  0.62190329  0.12726950  0.91993812     0.20500
H2365       H  0.59140284  0.10428812  0.81887023     0.10200
C2366       C  0.65229539  0.11592642  0.91836163    -0.15800
C2367       C  0.67577411  0.12610303  0.93872232     0.03200
C2368       C  0.66902756  0.14959506  0.96190178    -0.11100
C2369       C  0.63760075  0.16019563  0.96322638    -0.01100
C2370       C  0.61441103  0.14927506  0.94292167    -0.06300
H2371       H  0.65762497  0.09818421  0.90107143     0.06200
H2372       H  0.63101022  0.17770921  0.98022413     0.09600
Br2373     Br  0.63625666  0.14591576  0.84803287    -0.06000
Br2374     Br  0.51815835  0.05883982  0.90442314    -0.02900
Br2375     Br  0.71355757  0.10273321  0.93204758    -0.00100
Br2376     Br  0.57315004  0.16592811  0.94700154    -0.04400
loop_ 
_geom_bond_atom_site_label_1 
_geom_bond_atom_site_label_2 
_geom_bond_distance 
_geom_bond_site_symmetry_2 
_ccdc_geom_bond_type 
O1          Zr37   2.445       .  S
O1           C12   1.292       .  A
O2          Zr36   2.445       .  S
O2           C13   1.294       .  A
O3           Zr9   2.465       .  S
O3           C14   1.297       .  A
O4           Zr9   2.455       .  S
O4           C15   1.294       .  A
O5          Zr39   2.465       .  S
O5           C15   1.296       .  A
O6          Zr38   2.446       .  S
O6           C14   1.294   1_565  A
O7           Zr9   2.456       .  S
O7           C13   1.295       .  A
O8           Zr9   2.432       .  S
O8           C12   1.293       .  A
Zr9          O10   2.346       .  S
Zr9          O11   2.354       .  S
Zr9          O19   2.340       .  S
Zr9          O17   2.327       .  S
O10         Zr36   2.349       .  S
O10         Zr39   2.343       .  S
O11         Zr37   2.361       .  S
O11         Zr38   2.344   1_545  S
C12        C2357   1.494       .  S
C13        C2208   1.491       .  S
C14        C2168   1.493       .  S
C15        C2257   1.484       .  S
H16          O17   0.964       .  S
O17         Zr36   2.331       .  S
O17         Zr38   2.342   1_545  S
H18          O19   0.958       .  S
O19         Zr37   2.336       .  S
O19         Zr39   2.331       .  S
O20         Zr36   2.445   1_565  S
O20          C43   1.294       .  A
O21         Zr37   2.466   1_565  S
O21          C44   1.299       .  A
O22         Zr38   2.421       .  S
O22          C45   1.290       .  A
O23         Zr39   2.400       .  S
O23          C46   1.283       .  A
O24         Zr39   2.399       .  S
O24          C47   1.286       .  A
O25         Zr38   2.427       .  S
O25          C48   1.290       .  A
O26         Zr40   2.428       .  S
O26          C49   1.291       .  A
O27         Zr40   2.429       .  S
O27          C50   1.289   1_565  A
O28         Zr38   2.456       .  S
O28          C49   1.295       .  A
O29         Zr39   2.464       .  S
O29          C50   1.296       .  A
O30         Zr36   2.450   1_565  S
O30          C45   1.294       .  A
O31         Zr37   2.464   1_565  S
O31          C48   1.297       .  A
O32         Zr37   2.461       .  S
O32          C47   1.296       .  A
O33         Zr36   2.457       .  S
O33          C46   1.297       .  A
O34         Zr40   2.429       .  S
O34          C43   1.289       .  A
O35         Zr40   2.431       .  S
O35          C44   1.288       .  A
Zr36         O42   2.354   1_545  S
Zr36         O54   2.331       .  S
Zr37         O41   2.345       .  S
Zr37         O52   2.337   1_545  S
Zr38         O42   2.339       .  S
Zr38         O52   2.344       .  S
Zr39         O41   2.337       .  S
Zr39         O54   2.338       .  S
Zr40         O41   2.338   1_565  S
Zr40         O42   2.340       .  S
Zr40         O54   2.339   1_565  S
Zr40         O52   2.339       .  S
C43        C2248   1.486       .  S
C44        C2317   1.503       .  S
C45        C2217   1.476       .  S
C46        C2177   1.485       .  S
C47        C2308   1.475       .  S
C48        C2337   1.484       .  S
C49        C2277   1.490       .  S
C50        C2137   1.472       .  S
H51          O52   0.963       .  S
H53          O54   0.969       .  S
C55        C2077   1.585       .  S
C55        C2108   1.572       .  S
C55        C2128   1.578       .  S
C55        C2197   1.581       .  S
O56         Zr92   2.427       .  S
O56          C67   1.290       .  A
O57         Zr91   2.406       .  S
O57          C68   1.286       .  A
O58         Zr64   2.423       .  S
O58          C69   1.288       .  A
O59         Zr64   2.458   1_565  S
O59          C70   1.295       .  A
O60         Zr94   2.438       .  S
O60          C70   1.292       .  A
O61         Zr93   2.443       .  S
O61          C69   1.294       .  A
O62         Zr64   2.460   1_565  S
O62          C68   1.296       .  A
O63         Zr64   2.465       .  S
O63          C67   1.298       .  A
Zr64         O65   2.346   1_545  S
Zr64         O66   2.352       .  S
Zr64         O74   2.326       .  S
Zr64         O72   2.337       .  S
O65         Zr91   2.353       .  S
O65         Zr94   2.339       .  S
O66         Zr92   2.340       .  S
O66         Zr93   2.340       .  S
C67        C2097   1.487       .  S
C68        C1897   1.469       .  S
C69        C1937   1.487       .  S
C70        C1928   1.498       .  S
H71          O72   0.963       .  S
O72         Zr91   2.330   1_545  S
O72         Zr93   2.331       .  S
H73          O74   0.964       .  S
O74         Zr92   2.349       .  S
O74         Zr94   2.342   1_545  S
O75         Zr91   2.430       .  S
O75          C98   1.292       .  A
O76         Zr92   2.442       .  S
O76          C99   1.291       .  A
O77         Zr93   2.446       .  S
O77         C100   1.294       .  A
O78         Zr94   2.453       .  S
O78         C101   1.294       .  A
O79         Zr94   2.444       .  S
O79         C102   1.292   1_565  A
O80         Zr93   2.435       .  S
O80         C103   1.290       .  A
O81         Zr95   2.451       .  S
O81         C104   1.295       .  A
O82         Zr95   2.459   1_565  S
O82         C105   1.296       .  A
O83         Zr93   2.432       .  S
O83         C104   1.291       .  A
O84         Zr94   2.429       .  S
O84         C105   1.290       .  A
O85         Zr91   2.470       .  S
O85         C100   1.296   1_565  A
O86         Zr92   2.443       .  S
O86         C103   1.294       .  A
O87         Zr92   2.434       .  S
O87         C102   1.291       .  A
O88         Zr91   2.448       .  S
O88         C101   1.294       .  A
O89         Zr95   2.439   1_565  S
O89          C98   1.291       .  A
O90         Zr95   2.463       .  S
O90          C99   1.298       .  A
Zr91         O97   2.335   1_565  S
Zr91        O109   2.333       .  S
Zr92         O96   2.346       .  S
Zr92        O107   2.335       .  S
Zr93         O97   2.343       .  S
Zr93        O107   2.350       .  S
Zr94         O96   2.351   1_565  S
Zr94        O109   2.343       .  S
Zr95         O96   2.347       .  S
Zr95         O97   2.355       .  S
Zr95        O109   2.336   1_545  S
Zr95        O107   2.337       .  S
C98        C2037   1.489       .  S
C99        C1997   1.502       .  S
C100       C1857   1.510       .  S
C101       C1977   1.481       .  S
C102       C1877   1.463       .  S
C103       C1968   1.487       .  S
C104       C2057   1.475       .  S
C105       C2028   1.470       .  S
H106        O107   0.969       .  S
H108        O109   0.968       .  S
C110       C1828   1.569       .  S
C110       C1837   1.580       .  S
C110       C2048   1.564       .  S
C110       C2328   1.588   1_554  S
C111       C1777   1.579       .  S
C111       C1808   1.578       .  S
C111       C2017   1.575   1_556  S
C111       C2348   1.573       .  S
C112       C1748   1.570       .  S
C112       C1757   1.574       .  S
C112       C1917   1.577       .  S
C112       C2228   1.570       .  S
C113       C1708   1.568       .  S
C113       C1717   1.582       .  S
C113       C2068   1.573   1_556  S
C113       C2297   1.574       .  S
C114       C1668   1.575       .  S
C114       C1677   1.561       .  S
C114       C2008   1.578   1_556  S
C114       C2368   1.567       .  S
C115       C1617   1.590       .  S
C115       C1637   1.569       .  S
C115       C1948   1.565       .  S
C115       C2188   1.579       .  S
C116       C1588   1.576       .  S
C116       C1597   1.581       .  S
C116       C1908   1.572       .  S
C116       C2237   1.566       .  S
O117       Zr153   2.442       .  S
O117        C128   1.292       .  A
O118       Zr152   2.466       .  S
O118        C129   1.297   1_455  A
O119       Zr125   2.441       .  S
O119        C130   1.294       .  A
O120       Zr125   2.444       .  S
O120        C131   1.292       .  A
O121       Zr155   2.451       .  S
O121        C131   1.294       .  A
O122       Zr154   2.417       .  S
O122        C130   1.287       .  A
O123       Zr125   2.440       .  S
O123        C129   1.290       .  A
O124       Zr125   2.437       .  S
O124        C128   1.293       .  A
Zr125       O126   2.338       .  S
Zr125       O127   2.347       .  S
Zr125       O135   2.338       .  S
Zr125       O133   2.333       .  S
O126       Zr152   2.334   1_655  S
O126       Zr155   2.345       .  S
O127       Zr153   2.349       .  S
O127       Zr154   2.355       .  S
C128       C1737   1.479       .  S
C129       C1397   1.503       .  S
C130       C1457   1.478       .  S
C131       C1548   1.473       .  S
H132        O133   0.964       .  S
O133       Zr152   2.327   1_655  S
O133       Zr154   2.337       .  S
H134        O135   0.960       .  S
O135       Zr153   2.341       .  S
O135       Zr155   2.339       .  S
O136       Zr152   2.451       .  S
O136        C159   1.295       .  A
O137       Zr153   2.451       .  S
O137        C160   1.294       .  A
O138       Zr154   2.477   1_455  S
O138        C161   1.300       .  A
O139       Zr155   2.450   1_455  S
O139        C162   1.294       .  A
O140       Zr155   2.435       .  S
O140        C163   1.290       .  A
O141       Zr154   2.471       .  S
O141        C164   1.298       .  A
O142       Zr156   2.438       .  S
O142        C165   1.293       .  A
O143       Zr156   2.426       .  S
O143        C166   1.289       .  A
O144       Zr154   2.445   1_455  S
O144        C165   1.292       .  A
O145       Zr155   2.469   1_455  S
O145        C166   1.298       .  A
O146       Zr152   2.407       .  S
O146        C161   1.285       .  A
O147       Zr153   2.445       .  S
O147        C164   1.294       .  A
O148       Zr153   2.453       .  S
O148        C163   1.296       .  A
O149       Zr152   2.410       .  S
O149        C162   1.287       .  A
O150       Zr156   2.440       .  S
O150        C159   1.291       .  A
O151       Zr156   2.436       .  S
O151        C160   1.293   1_455  A
Zr152       O158   2.344       .  S
Zr152       O170   2.340       .  S
Zr153       O157   2.347       .  S
Zr153       O168   2.350       .  S
Zr154       O158   2.344   1_655  S
Zr154       O168   2.338       .  S
Zr155       O157   2.350       .  S
Zr155       O170   2.333   1_655  S
Zr156       O157   2.344   1_455  S
Zr156       O158   2.338       .  S
Zr156       O170   2.347       .  S
Zr156       O168   2.343   1_455  S
C159       C1577   1.490       .  S
C160       C1377   1.484       .  S
C161       C1437   1.490       .  S
C162       C1557   1.466       .  S
C163       C1528   1.494       .  S
C164       C1477   1.505       .  S
C165       C1428   1.493       .  S
C166       C1497   1.476       .  S
H167        O168   0.963       .  S
H169        O170   0.960       .  S
O171       Zr207   2.444       .  S
O171        C182   1.294       .  A
O172       Zr206   2.469       .  S
O172        C183   1.299   1_455  A
O173       Zr179   2.451       .  S
O173        C184   1.295       .  A
O174       Zr179   2.448       .  S
O174        C185   1.295       .  A
O175       Zr209   2.435       .  S
O175        C185   1.291       .  A
O176       Zr208   2.451       .  S
O176        C184   1.295       .  A
O177       Zr179   2.436       .  S
O177        C183   1.290       .  A
O178       Zr179   2.457       .  S
O178        C182   1.295       .  A
Zr179       O180   2.345       .  S
Zr179       O181   2.337       .  S
Zr179       O189   2.344       .  S
Zr179       O187   2.349       .  S
O180       Zr206   2.335   1_655  S
O180       Zr209   2.332       .  S
O181       Zr207   2.344       .  S
O181       Zr208   2.343       .  S
C182       C2088   1.494       .  S
C183       C1208   1.505       .  S
C184       C1317   1.489       .  S
C185       C1237   1.492       .  S
H186        O187   0.962       .  S
O187       Zr206   2.353   1_655  S
O187       Zr208   2.359       .  S
H188        O189   0.959       .  S
O189       Zr207   2.341       .  S
O189       Zr209   2.354       .  S
O190       Zr206   2.460       .  S
O190        C213   1.295       .  A
O191       Zr207   2.451       .  S
O191        C214   1.295       .  A
O192       Zr208   2.458   1_455  S
O192        C215   1.296       .  A
O193       Zr209   2.449   1_455  S
O193        C216   1.293       .  A
O194       Zr209   2.430       .  S
O194        C217   1.289       .  A
O195       Zr208   2.451       .  S
O195        C218   1.295       .  A
O196       Zr210   2.411       .  S
O196        C219   1.288       .  A
O197       Zr210   2.403       .  S
O197        C220   1.286       .  A
O198       Zr208   2.454   1_455  S
O198        C219   1.294       .  A
O199       Zr209   2.432   1_455  S
O199        C220   1.291       .  A
O200       Zr206   2.414       .  S
O200        C215   1.288       .  A
O201       Zr207   2.440       .  S
O201        C218   1.293       .  A
O202       Zr207   2.444       .  S
O202        C217   1.295       .  A
O203       Zr206   2.438       .  S
O203        C216   1.291       .  A
O204       Zr210   2.452       .  S
O204        C213   1.294       .  A
O205       Zr210   2.465       .  S
O205        C214   1.296   1_455  A
Zr206       O212   2.345       .  S
Zr206       O224   2.340       .  S
Zr207       O211   2.329       .  S
Zr207       O222   2.344       .  S
Zr208       O212   2.335   1_655  S
Zr208       O222   2.355       .  S
Zr209       O211   2.331       .  S
Zr209       O224   2.346   1_655  S
Zr210       O211   2.327   1_455  S
Zr210       O212   2.333       .  S
Zr210       O224   2.347       .  S
Zr210       O222   2.336   1_455  S
C213       C1628   1.487       .  S
C214       C1188   1.507       .  S
C215       C1308   1.467       .  S
C216       C1257   1.475       .  S
C217       C1217   1.495       .  S
C218       C1337   1.484       .  S
C219       C1368   1.481       .  S
C220       C1277   1.458       .  S
H221        O222   0.961       .  S
H223        O224   0.967       .  S
C225       C1137   1.570       .  S
C225       C1157   1.567       .  S
C225       C1248   1.578       .  S
C225       C1468   1.554       .  S
C226       C1108   1.573       .  S
C226       C1128   1.583       .  S
C226       C1268   1.576       .  S
C226       C1448   1.578       .  S
C227       C1077   1.578       .  S
C227       C1348   1.572       .  S
C227       C1517   1.571   1_545  S
C227       C1888   1.574       .  S
C228       C1057   1.574   1_545  S
C228       C1328   1.587       .  S
C228       C1537   1.592   1_545  S
C228       C2157   1.576       .  S
C229       C1017   1.576       .  S
C229       C1037   1.570       .  S
C229       C1228   1.562       .  S
C229       C1488   1.586       .  S
C230        C977   1.566       .  S
C230       C1008   1.590       .  S
C230       C1288   1.573       .  S
C230       C1417   1.572       .  S
C231        C957   1.575       .  S
C231       C1357   1.568       .  S
C231       C1508   1.588   1_545  S
C231       C1868   1.586       .  S
C232        C937   1.570       .  S
C232       C1297   1.567       .  S
C232       C1568   1.564   1_545  S
C232       C2148   1.569       .  S
O233       Zr269   2.455       .  S
O233        C244   1.294       .  A
O234       Zr268   2.431       .  S
O234        C245   1.291       .  A
O235       Zr241   2.433       .  S
O235        C246   1.289       .  A
O236       Zr241   2.439       .  S
O236        C247   1.292       .  A
O237       Zr271   2.444   1_554  S
O237        C247   1.294       .  A
O238       Zr270   2.452   1_554  S
O238        C246   1.296       .  A
O239       Zr241   2.446       .  S
O239        C245   1.293       .  A
O240       Zr241   2.452       .  S
O240        C244   1.294   1_554  A
Zr241       O242   2.335       .  S
Zr241       O243   2.335   1_554  S
Zr241       O251   2.347   1_554  S
Zr241       O249   2.338       .  S
O242       Zr268   2.328       .  S
O242       Zr271   2.337   1_554  S
O243       Zr269   2.339       .  S
O243       Zr270   2.349       .  S
C244       C1788   1.485       .  S
C245       C1028   1.479       .  S
C246        C797   1.497       .  S
C247        C917   1.477       .  S
H248        O249   0.968       .  S
O249       Zr268   2.342       .  S
O249       Zr270   2.353   1_554  S
H250        O251   0.963       .  S
O251       Zr269   2.339       .  S
O251       Zr271   2.358       .  S
O252       Zr268   2.439       .  S
O252        C275   1.290   1_554  A
O253       Zr269   2.445       .  S
O253        C276   1.293       .  A
O254       Zr270   2.473   1_554  S
O254        C277   1.298       .  A
O255       Zr271   2.470   1_554  S
O255        C278   1.298       .  A
O256       Zr271   2.466       .  S
O256        C279   1.297       .  A
O257       Zr270   2.460       .  S
O257        C280   1.297       .  A
O258       Zr272   2.427       .  S
O258        C281   1.289       .  A
O259       Zr272   2.424       .  S
O259        C282   1.289       .  A
O260       Zr270   2.463       .  S
O260        C281   1.297       .  A
O261       Zr271   2.455       .  S
O261        C282   1.296       .  A
O262       Zr268   2.419       .  S
O262        C277   1.288       .  A
O263       Zr269   2.414       .  S
O263        C280   1.287       .  A
O264       Zr269   2.430       .  S
O264        C279   1.290       .  A
O265       Zr268   2.431       .  S
O265        C278   1.290       .  A
O266       Zr272   2.438       .  S
O266        C275   1.292       .  A
O267       Zr272   2.421       .  S
O267        C276   1.288       .  A
Zr268       O274   2.340   1_554  S
Zr268       O286   2.338   1_554  S
Zr269       O273   2.337       .  S
Zr269       O284   2.349       .  S
Zr270       O274   2.343       .  S
Zr270       O284   2.351       .  S
Zr271       O273   2.337       .  S
Zr271       O286   2.356       .  S
Zr272       O273   2.343       .  S
Zr272       O274   2.334       .  S
Zr272       O286   2.344       .  S
Zr272       O284   2.339       .  S
C275       C1657   1.490       .  S
C276       C1148   1.466       .  S
C277        C777   1.472       .  S
C278        C857   1.479       .  S
C279        C897   1.478       .  S
C280        C817   1.473       .  S
C281        C837   1.474       .  S
C282        C877   1.477       .  S
H283        O284   0.963       .  S
H285        O286   0.962       .  S
O287       Zr323   2.419       .  S
O287        C298   1.288   1_556  A
O288       Zr322   2.427       .  S
O288        C299   1.290       .  A
O289       Zr295   2.414       .  S
O289        C300   1.289       .  A
O290       Zr295   2.435       .  S
O290        C301   1.292       .  A
O291       Zr325   2.474   1_554  S
O291        C301   1.298       .  A
O292       Zr324   2.472       .  S
O292        C300   1.298       .  A
O293       Zr295   2.463       .  S
O293        C299   1.297       .  A
O294       Zr295   2.454       .  S
O294        C298   1.295       .  A
Zr295       O296   2.333       .  S
Zr295       O297   2.349       .  S
Zr295       O305   2.341       .  S
Zr295       O303   2.349       .  S
O296       Zr322   2.350       .  S
O296       Zr325   2.346   1_554  S
O297       Zr323   2.341   1_554  S
O297       Zr324   2.346       .  S
C298       C1817   1.469       .  S
C299        C988   1.476       .  S
C300        C657   1.492       .  S
C301        C748   1.503       .  S
H302        O303   0.963       .  S
O303       Zr322   2.344       .  S
O303       Zr324   2.341       .  S
H304        O305   0.966       .  S
O305       Zr323   2.349   1_554  S
O305       Zr325   2.336   1_554  S
O306       Zr322   2.450       .  S
O306        C329   1.295   1_554  A
O307       Zr323   2.443       .  S
O307        C330   1.292       .  A
O308       Zr324   2.462       .  S
O308        C331   1.296       .  A
O309       Zr325   2.448   1_554  S
O309        C332   1.294       .  A
O310       Zr325   2.458       .  S
O310        C333   1.296       .  A
O311       Zr324   2.468   1_556  S
O311        C334   1.297       .  A
O312       Zr326   2.408       .  S
O312        C335   1.286       .  A
O313       Zr326   2.426       .  S
O313        C336   1.289       .  A
O314       Zr324   2.450   1_556  S
O314        C335   1.295       .  A
O315       Zr325   2.449       .  S
O315        C336   1.294       .  A
O316       Zr322   2.448       .  S
O316        C331   1.295       .  A
O317       Zr323   2.422       .  S
O317        C334   1.290       .  A
O318       Zr323   2.412       .  S
O318        C333   1.289       .  A
O319       Zr322   2.431       .  S
O319        C332   1.292       .  A
O320       Zr326   2.415       .  S
O320        C329   1.285       .  A
O321       Zr326   2.441       .  S
O321        C330   1.291       .  A
Zr322       O328   2.326   1_554  S
Zr322       O340   2.341   1_554  S
Zr323       O327   2.334       .  S
Zr323       O338   2.322       .  S
Zr324       O328   2.351   1_554  S
Zr324       O338   2.342   1_554  S
Zr325       O327   2.354       .  S
Zr325       O340   2.349       .  S
Zr326       O327   2.329       .  S
Zr326       O328   2.342       .  S
Zr326       O340   2.336       .  S
Zr326       O338   2.333       .  S
C329       C1697   1.487       .  S
C330       C1097   1.477       .  S
C331        C648   1.499       .  S
C332        C768   1.476       .  S
C333        C717   1.483       .  S
C334        C677   1.499       .  S
C335        C617   1.462       .  S
C336        C708   1.464       .  S
H337        O338   0.963       .  S
H339        O340   0.959       .  S
C341        C608   1.568       .  S
C341        C688   1.575       .  S
C341        C908   1.590   1_455  S
C341       C1408   1.587       .  S
C342        C577   1.564       .  S
C342        C628   1.572   1_655  S
C342        C888   1.580       .  S
C342       C1197   1.575       .  S
C343        C557   1.567       .  S
C343        C728   1.562       .  S
C343        C828   1.571       .  S
C343       C2288   1.569       .  S
C344        C548   1.579       .  S
C344        C737   1.585       .  S
C344        C808   1.585       .  S
C344       C1988   1.569       .  S
C345        C517   1.584       .  S
C345        C637   1.581   1_655  S
C345        C868   1.592       .  S
C345       C1177   1.590       .  S
C346        C508   1.592       .  S
C346        C668   1.566   1_655  S
C346        C928   1.581       .  S
C346       C1388   1.579       .  S
C347        C488   1.587       .  S
C347        C697   1.560       .  S
C347        C848   1.579       .  S
C347       C2268   1.586       .  S
C348        C457   1.563       .  S
C348        C757   1.566       .  S
C348        C788   1.573       .  S
C348       C1957   1.574       .  S
O349       Zr385   2.454       .  S
O349        C360   1.293       .  A
O350       Zr384   2.454       .  S
O350        C361   1.295       .  A
O351       Zr357   2.477       .  S
O351        C362   1.298       .  A
O352       Zr357   2.470       .  S
O352        C363   1.298       .  A
O353       Zr387   2.405       .  S
O353        C363   1.283       .  A
O354       Zr386   2.404       .  S
O354        C362   1.286       .  A
O355       Zr357   2.397       .  S
O355        C361   1.286       .  A
O356       Zr357   2.434       .  S
O356        C360   1.293       .  A
Zr357       O358   2.347       .  S
Zr357       O359   2.334       .  S
Zr357       O367   2.327       .  S
Zr357       O365   2.351       .  S
O358       Zr384   2.342       .  S
O358       Zr387   2.326       .  S
O359       Zr385   2.339       .  S
O359       Zr386   2.343       .  S
C360       C2117   1.489       .  S
C361        C468   1.464       .  S
C362       C1648   1.476       .  S
C363       C1048   1.493       .  S
H364        O365   0.962       .  S
O365       Zr384   2.351       .  S
O365       Zr386   2.331       .  S
H366        O367   0.959       .  S
O367       Zr385   2.335       .  S
O367       Zr387   2.334       .  S
O368       Zr384   2.481       .  S
O368        C391   1.299       .  A
O369       Zr385   2.450       .  S
O369        C392   1.294       .  A
O370       Zr386   2.463       .  S
O370        C393   1.296       .  A
O371       Zr387   2.465       .  S
O371        C394   1.296       .  A
O372       Zr387   2.445       .  S
O372        C395   1.292       .  A
O373       Zr386   2.455       .  S
O373        C396   1.294       .  A
O374       Zr388   2.474       .  S
O374        C397   1.297       .  A
O375       Zr388   2.467       .  S
O375        C398   1.296       .  A
O376       Zr386   2.395       .  S
O376        C397   1.286       .  A
O377       Zr387   2.409       .  S
O377        C398   1.287       .  A
O378       Zr384   2.416       .  S
O378        C393   1.288       .  A
O379       Zr385   2.420       .  S
O379        C396   1.289       .  A
O380       Zr385   2.414       .  S
O380        C395   1.287       .  A
O381       Zr384   2.407       .  S
O381        C394   1.286       .  A
O382       Zr388   2.399       .  S
O382        C391   1.286       .  A
O383       Zr388   2.404       .  S
O383        C392   1.286       .  A
Zr384       O390   2.337       .  S
Zr384       O402   2.337       .  S
Zr385       O389   2.339       .  S
Zr385       O400   2.343       .  S
Zr386       O390   2.340       .  S
Zr386       O400   2.338       .  S
Zr387       O389   2.342       .  S
Zr387       O402   2.327       .  S
Zr388       O389   2.338       .  S
Zr388       O390   2.342       .  S
Zr388       O402   2.345       .  S
Zr388       O400   2.339       .  S
C391       C1608   1.475       .  S
C392        C568   1.463       .  S
C393        C997   1.478       .  S
C394        C537   1.467       .  S
C395       C1168   1.456       .  S
C396        C477   1.468       .  S
C397       C1117   1.490       .  S
C398       C1768   1.467       .  S
H399        O400   0.963       .  S
H401        O402   0.969       .  S
O403       Zr439   2.486       .  S
O403        C414   1.300       .  A
O404       Zr438   2.448   1_455  S
O404        C415   1.293       .  A
O405       Zr411   2.476       .  S
O405        C416   1.299       .  A
O406       Zr411   2.481   1_545  S
O406        C417   1.300       .  A
O407       Zr441   2.403       .  S
O407        C417   1.285   1_554  A
O408       Zr440   2.382       .  S
O408        C416   1.283   1_655  A
O409       Zr411   2.415   1_545  S
O409        C415   1.289       .  A
O410       Zr411   2.405       .  S
O410        C414   1.286   1_556  A
Zr411       O412   2.344   1_565  S
Zr411       O413   2.341       .  S
Zr411       O421   2.341   1_566  S
Zr411       O419   2.333   1_455  S
O412       Zr438   2.343   1_455  S
O412       Zr441   2.346   1_556  S
O413       Zr439   2.324   1_556  S
O413       Zr440   2.342   1_455  S
C414       C1848   1.480       .  S
C415        C948   1.465       .  S
C416        C597   1.464       .  S
C417       C1728   1.481       .  S
H418        O419   0.965       .  S
O419       Zr438   2.329   1_565  S
O419       Zr440   2.337       .  S
H420        O421   0.968       .  S
O421       Zr439   2.341   1_545  S
O421       Zr441   2.337       .  S
O422       Zr438   2.445       .  S
O422        C445   1.292       .  A
O423       Zr439   2.459   1_655  S
O423        C446   1.296       .  A
O424       Zr440   2.489       .  S
O424        C447   1.300       .  A
O425       Zr441   2.452   1_556  S
O425        C448   1.293       .  A
O426       Zr441   2.469       .  S
O426        C449   1.296       .  A
O427       Zr440   2.483   1_554  S
O427        C450   1.299       .  A
O428       Zr442   2.458   1_565  S
O428        C451   1.296       .  A
O429       Zr442   2.504       .  S
O429        C452   1.304       .  A
O430       Zr440   2.416       .  S
O430        C451   1.289   1_556  A
O431       Zr441   2.391   1_655  S
O431        C452   1.282       .  A
O432       Zr438   2.403       .  S
O432        C447   1.287   1_545  A
O433       Zr439   2.413   1_655  S
O433        C450   1.288       .  A
O434       Zr439   2.397   1_545  S
O434        C449   1.284       .  A
O435       Zr438   2.414       .  S
O435        C448   1.289   1_655  A
O436       Zr442   2.423   1_556  S
O436        C445   1.290       .  A
O437       Zr442   2.414       .  S
O437        C446   1.289   1_545  A
Zr438       O444   2.344       .  S
Zr438       O456   2.329       .  S
Zr439       O443   2.349   1_465  S
Zr439       O454   2.349   1_455  S
Zr440       O444   2.342   1_565  S
Zr440       O454   2.340   1_556  S
Zr441       O443   2.335   1_455  S
Zr441       O456   2.330   1_454  S
Zr442       O443   2.342       .  S
Zr442       O444   2.352   1_554  S
Zr442       O456   2.323   1_554  S
Zr442       O454   2.359   1_545  S
C445       C1688   1.465       .  S
C446       C1088   1.476       .  S
C447       C1068   1.488       .  S
C448        C588   1.484       .  S
C449        C968   1.467       .  S
C450        C497   1.494       .  S
C451       C1797   1.470       .  S
C452        C528   1.497       .  S
H453        O454   0.963       .  S
H455        O456   0.965       .  S
C457        C458   1.433       .  A
C457        C462   1.423       .  A
C458        C459   1.390       .  A
C458       Br474   1.924       .  S
C459        C460   1.393       .  A
C459        H463   1.085       .  S
C460        C464   1.471       .  S
C460        C461   1.401       .  A
C461        C462   1.397       .  A
C461       Br473   1.921       .  S
C462        H465   1.073       .  S
C464        C466   1.399       .  A
C464        C470   1.410       .  A
C466        C467   1.385       .  A
C466        H471   1.084       .  S
C467        C468   1.410       .  A
C467       Br475   1.923       .  S
C468        C469   1.404       .  A
C469        C470   1.402       .  A
C469        H472   1.084       .  S
C470       Br476   1.918       .  S
C477        C478   1.401       .  A
C477        C482   1.398       .  A
C478        C479   1.398       .  A
C478       Br494   1.917       .  S
C479        C480   1.409       .  A
C479        H483   1.081       .  S
C480        C484   1.498       .  S
C480        C481   1.420       .  A
C481        C482   1.401       .  A
C481       Br493   1.919       .  S
C482        H485   1.084       .  S
C484        C486   1.401       .  A
C484        C490   1.407       .  A
C486        C487   1.405       .  A
C486        H491   1.084       .  S
C487        C488   1.432       .  A
C487       Br495   1.907       .  S
C488        C489   1.424       .  A
C489        C490   1.398       .  A
C489        H492   1.077       .  S
C490       Br496   1.922       .  S
C497        C498   1.413       .  A
C497        C502   1.410   1_655  A
C498        C499   1.409       .  A
C498       Br514   1.915       .  S
C499        C500   1.406       .  A
C499        H503   1.083       .  S
C500        C504   1.486       .  S
C500        C501   1.405   1_655  A
C501        C502   1.397       .  A
C501       Br513   1.921       .  S
C502        H505   1.084       .  S
C504        C506   1.395       .  A
C504        C510   1.401       .  A
C506        C507   1.406       .  A
C506        H511   1.084       .  S
C507        C508   1.437       .  A
C507       Br515   1.917       .  S
C508        C509   1.424       .  A
C509        C510   1.398       .  A
C509        H512   1.076       .  S
C510       Br516   1.921       .  S
C517        C518   1.438       .  A
C517        C522   1.424       .  A
C518        C519   1.411       .  A
C518       Br534   1.922       .  S
C519        C520   1.399       .  A
C519        H523   1.084       .  S
C520        C524   1.488       .  S
C520        C521   1.398       .  A
C521        C522   1.397       .  A
C521       Br533   1.920       .  S
C522        H525   1.076       .  S
C524        C526   1.396       .  A
C524        C530   1.410       .  A
C526        C527   1.394       .  A
C526        H531   1.084   1_655  S
C527        C528   1.424       .  A
C527       Br535   1.927   1_655  S
C528        C529   1.410       .  A
C529        C530   1.412       .  A
C529        H532   1.083       .  S
C530       Br536   1.914       .  S
C537        C538   1.408       .  A
C537        C542   1.402       .  A
C538        C539   1.400       .  A
C538       Br554   1.920       .  S
C539        C540   1.402       .  A
C539        H543   1.083       .  S
C540        C544   1.476       .  S
C540        C541   1.407       .  A
C541        C542   1.399       .  A
C541       Br553   1.919       .  S
C542        H545   1.084       .  S
C544        C546   1.390       .  A
C544        C550   1.401       .  A
C546        C547   1.397       .  A
C546        H551   1.084       .  S
C547        C548   1.440       .  A
C547       Br555   1.925       .  S
C548        C549   1.419       .  A
C549        C550   1.399       .  A
C549        H552   1.077       .  S
C550       Br556   1.919       .  S
C557        C558   1.437       .  A
C557        C562   1.422       .  A
C558        C559   1.396       .  A
C558       Br574   1.922       .  S
C559        C560   1.390       .  A
C559        H563   1.084       .  S
C560        C564   1.465       .  S
C560        C561   1.398       .  A
C561        C562   1.393       .  A
C561       Br573   1.921       .  S
C562        H565   1.076       .  S
C564        C566   1.397       .  A
C564        C570   1.406       .  A
C566        C567   1.390       .  A
C566        H571   1.084       .  S
C567        C568   1.410       .  A
C567       Br575   1.922       .  S
C568        C569   1.403       .  A
C569        C570   1.399       .  A
C569        H572   1.084       .  S
C570       Br576   1.917       .  S
C577        C578   1.436   1_655  A
C577        C582   1.419       .  A
C578        C579   1.395       .  A
C578       Br594   1.924       .  S
C579        C580   1.393   1_455  A
C579        H583   1.084       .  S
C580        C584   1.478       .  S
C580        C581   1.402       .  A
C581        C582   1.399       .  A
C581       Br593   1.920       .  S
C582        H585   1.076       .  S
C584        C586   1.406   1_655  A
C584        C590   1.407       .  A
C586        C587   1.403       .  A
C586        H591   1.083       .  S
C587        C588   1.414       .  A
C587       Br595   1.921       .  S
C588        C589   1.408   1_455  A
C589        C590   1.390       .  A
C589        H592   1.084       .  S
C590       Br596   1.923       .  S
C597        C598   1.410       .  A
C597        C602   1.402       .  A
C598        C599   1.393       .  A
C598       Br614   1.920   1_455  S
C599        C600   1.399       .  A
C599        H603   1.084   1_455  S
C600        C604   1.474       .  S
C600        C601   1.410       .  A
C601        C602   1.401       .  A
C601       Br613   1.918       .  S
C602        H605   1.084       .  S
C604        C606   1.390       .  A
C604        C610   1.405   1_455  A
C606        C607   1.393       .  A
C606        H611   1.084       .  S
C607        C608   1.438       .  A
C607       Br615   1.927       .  S
C608        C609   1.417   1_455  A
C609        C610   1.400       .  A
C609        H612   1.077       .  S
C610       Br616   1.919       .  S
C617        C618   1.410       .  A
C617        C622   1.401       .  A
C618        C619   1.392       .  A
C618       Br634   1.919       .  S
C619        C620   1.398       .  A
C619        H623   1.084       .  S
C620        C624   1.465       .  S
C620        C621   1.406       .  A
C621        C622   1.397       .  A
C621       Br633   1.917       .  S
C622        H625   1.084       .  S
C624        C626   1.387       .  A
C624        C630   1.398       .  A
C626        C627   1.388       .  A
C626        H631   1.085       .  S
C627        C628   1.437       .  A
C627       Br635   1.926   1_455  S
C628        C629   1.421       .  A
C629        C630   1.400       .  A
C629        H632   1.078       .  S
C630       Br636   1.917       .  S
C637        C638   1.437       .  A
C637        C642   1.423       .  A
C638        C639   1.410       .  A
C638       Br654   1.927       .  S
C639        C640   1.401       .  A
C639        H643   1.084       .  S
C640        C644   1.491       .  S
C640        C641   1.402       .  A
C641        C642   1.397       .  A
C641       Br653   1.919       .  S
C642        H645   1.082       .  S
C644        C646   1.405       .  A
C644        C650   1.407       .  A
C646        C647   1.407       .  A
C646        H651   1.084       .  S
C647        C648   1.418       .  A
C647       Br655   1.922       .  S
C648        C649   1.410       .  A
C649        C650   1.402       .  A
C649        H652   1.083       .  S
C650       Br656   1.919       .  S
C657        C658   1.414       .  A
C657        C662   1.415       .  A
C658        C659   1.398       .  A
C658       Br674   1.920       .  S
C659        C660   1.403       .  A
C659        H663   1.083       .  S
C660        C664   1.479       .  S
C660        C661   1.402       .  A
C661        C662   1.401       .  A
C661       Br673   1.918       .  S
C662        H665   1.083       .  S
C664        C666   1.397       .  A
C664        C670   1.399       .  A
C666        C667   1.406       .  A
C666        H671   1.084       .  S
C667        C668   1.438       .  A
C667       Br675   1.923       .  S
C668        C669   1.418       .  A
C669        C670   1.394       .  A
C669        H672   1.077       .  S
C670       Br676   1.918       .  S
C677        C678   1.418       .  A
C677        C682   1.415       .  A
C678        C679   1.401       .  A
C678       Br694   1.921       .  S
C679        C680   1.403       .  A
C679        H683   1.084       .  S
C680        C684   1.481       .  S
C680        C681   1.403       .  A
C681        C682   1.399       .  A
C681       Br693   1.919       .  S
C682        H685   1.083       .  S
C684        C686   1.391       .  A
C684        C690   1.404       .  A
C686        C687   1.392       .  A
C686        H691   1.084       .  S
C687        C688   1.438       .  A
C687       Br695   1.929       .  S
C688        C689   1.419       .  A
C689        C690   1.404       .  A
C689        H692   1.076       .  S
C690       Br696   1.917       .  S
C697        C698   1.427       .  A
C697        C702   1.419       .  A
C698        C699   1.400       .  A
C698       Br714   1.919       .  S
C699        C700   1.401       .  A
C699        H703   1.084       .  S
C700        C704   1.491       .  S
C700        C701   1.412       .  A
C701        C702   1.398       .  A
C701       Br713   1.923       .  S
C702        H705   1.082       .  S
C704        C706   1.405       .  A
C704        C710   1.421       .  A
C706        C707   1.397       .  A
C706        H711   1.082       .  S
C707        C708   1.405       .  A
C707       Br715   1.916       .  S
C708        C709   1.396       .  A
C709        C710   1.397       .  A
C709        H712   1.083       .  S
C710       Br716   1.924       .  S
C717        C718   1.415       .  A
C717        C722   1.410       .  A
C718        C719   1.400       .  A
C718       Br734   1.919       .  S
C719        C720   1.401       .  A
C719        H723   1.084       .  S
C720        C724   1.469       .  S
C720        C721   1.401       .  A
C721        C722   1.394       .  A
C721       Br733   1.920       .  S
C722        H725   1.083       .  S
C724        C726   1.396       .  A
C724        C730   1.401       .  A
C726        C727   1.399       .  A
C726        H731   1.084       .  S
C727        C728   1.429       .  A
C727       Br735   1.927       .  S
C728        C729   1.416       .  A
C729        C730   1.393       .  A
C729        H732   1.081       .  S
C730       Br736   1.919       .  S
C737        C738   1.442       .  A
C737        C742   1.424       .  A
C738        C739   1.409       .  A
C738       Br754   1.929       .  S
C739        C740   1.398       .  A
C739        H743   1.084       .  S
C740        C744   1.492       .  S
C740        C741   1.400       .  A
C741        C742   1.399       .  A
C741       Br753   1.919       .  S
C742        H745   1.083       .  S
C744        C746   1.404       .  A
C744        C750   1.406       .  A
C746        C747   1.406       .  A
C746        H751   1.084       .  S
C747        C748   1.418       .  A
C747       Br755   1.920       .  S
C748        C749   1.413       .  A
C749        C750   1.403       .  A
C749        H752   1.082       .  S
C750       Br756   1.919       .  S
C757        C758   1.436       .  A
C757        C762   1.422       .  A
C758        C759   1.392       .  A
C758       Br774   1.926       .  S
C759        C760   1.390       .  A
C759        H763   1.084       .  S
C760        C764   1.470       .  S
C760        C761   1.400       .  A
C761        C762   1.399       .  A
C761       Br773   1.917       .  S
C762        H765   1.076       .  S
C764        C766   1.400       .  A
C764        C770   1.404       .  A
C766        C767   1.398       .  A
C766        H771   1.084       .  S
C767        C768   1.411       .  A
C767       Br775   1.916       .  S
C768        C769   1.406       .  A
C769        C770   1.397       .  A
C769        H772   1.084       .  S
C770       Br776   1.919       .  S
C777        C778   1.408       .  A
C777        C782   1.399       .  A
C778        C779   1.403       .  A
C778       Br794   1.918       .  S
C779        C780   1.405       .  A
C779        H783   1.083       .  S
C780        C784   1.488       .  S
C780        C781   1.414       .  A
C781        C782   1.399       .  A
C781       Br793   1.921       .  S
C782        H785   1.084       .  S
C784        C786   1.393       .  A
C784        C790   1.410       .  A
C786        C787   1.389       .  A
C786        H791   1.084       .  S
C787        C788   1.434       .  A
C787       Br795   1.930       .  S
C788        C789   1.417       .  A
C789        C790   1.409       .  A
C789        H792   1.083       .  S
C790       Br796   1.917       .  S
C797        C798   1.425       .  A
C797        C802   1.412       .  A
C798        C799   1.396       .  A
C798       Br814   1.927       .  S
C799        C800   1.396       .  A
C799        H803   1.084       .  S
C800        C804   1.481       .  S
C800        C801   1.407       .  A
C801        C802   1.403       .  A
C801       Br813   1.919       .  S
C802        H805   1.083       .  S
C804        C806   1.396       .  A
C804        C810   1.398       .  A
C806        C807   1.405       .  A
C806        H811   1.084       .  S
C807        C808   1.434       .  A
C807       Br815   1.917       .  S
C808        C809   1.426       .  A
C809        C810   1.393       .  A
C809        H812   1.076       .  S
C810       Br816   1.923       .  S
C817        C818   1.415       .  A
C817        C822   1.402       .  A
C818        C819   1.396       .  A
C818       Br834   1.919       .  S
C819        C820   1.398       .  A
C819        H823   1.084       .  S
C820        C824   1.475       .  S
C820        C821   1.411       .  A
C821        C822   1.397       .  A
C821       Br833   1.920       .  S
C822        H825   1.084       .  S
C824        C826   1.399       .  A
C824        C830   1.396       .  A
C826        C827   1.402       .  A
C826        H831   1.084       .  S
C827        C828   1.431       .  A
C827       Br835   1.922       .  S
C828        C829   1.424       .  A
C829        C830   1.387       .  A
C829        H832   1.071       .  S
C830       Br836   1.925       .  S
C837        C838   1.410       .  A
C837        C842   1.400       .  A
C838        C839   1.405       .  A
C838       Br854   1.919       .  S
C839        C840   1.405       .  A
C839        H843   1.083       .  S
C840        C844   1.483       .  S
C840        C841   1.411       .  A
C841        C842   1.398       .  A
C841       Br853   1.919       .  S
C842        H845   1.084       .  S
C844        C846   1.386       .  A
C844        C850   1.405       .  A
C846        C847   1.391       .  A
C846        H851   1.085       .  S
C847        C848   1.448       .  A
C847       Br855   1.935       .  S
C848        C849   1.421       .  A
C849        C850   1.411       .  A
C849        H852   1.083       .  S
C850       Br856   1.915       .  S
C857        C858   1.410       .  A
C857        C862   1.402       .  A
C858        C859   1.406       .  A
C858       Br874   1.916       .  S
C859        C860   1.407       .  A
C859        H863   1.083       .  S
C860        C864   1.488       .  S
C860        C861   1.409       .  A
C861        C862   1.400       .  A
C861       Br873   1.918       .  S
C862        H865   1.084       .  S
C864        C866   1.402       .  A
C864        C870   1.396       .  A
C866        C867   1.410       .  A
C866        H871   1.083       .  S
C867        C868   1.433       .  A
C867       Br875   1.922       .  S
C868        C869   1.430       .  A
C869        C870   1.395       .  A
C869        H872   1.075       .  S
C870       Br876   1.923       .  S
C877        C878   1.410       .  A
C877        C882   1.410       .  A
C878        C879   1.394       .  A
C878       Br894   1.920       .  S
C879        C880   1.401       .  A
C879        H883   1.084       .  S
C880        C884   1.475       .  S
C880        C881   1.406       .  A
C881        C882   1.403       .  A
C881       Br893   1.918       .  S
C882        H885   1.084       .  S
C884        C886   1.399       .  A
C884        C890   1.396       .  A
C886        C887   1.406       .  A
C886        H891   1.083       .  S
C887        C888   1.429       .  A
C887       Br895   1.914       .  S
C888        C889   1.425       .  A
C889        C890   1.390       .  A
C889        H892   1.080       .  S
C890       Br896   1.921       .  S
C897        C898   1.407       .  A
C897        C902   1.404       .  A
C898        C899   1.403       .  A
C898       Br914   1.920       .  S
C899        C900   1.410       .  A
C899        H903   1.083       .  S
C900        C904   1.494       .  S
C900        C901   1.411       .  A
C901        C902   1.403       .  A
C901       Br913   1.918       .  S
C902        H905   1.084       .  S
C904        C906   1.404       .  A
C904        C910   1.399       .  A
C906        C907   1.413       .  A
C906        H911   1.083       .  S
C907        C908   1.434       .  A
C907       Br915   1.921       .  S
C908        C909   1.426       .  A
C909        C910   1.392       .  A
C909        H912   1.074       .  S
C910       Br916   1.925       .  S
C917        C918   1.414       .  A
C917        C922   1.402       .  A
C918        C919   1.401       .  A
C918       Br934   1.917       .  S
C919        C920   1.401       .  A
C919        H923   1.083       .  S
C920        C924   1.480       .  S
C920        C921   1.410       .  A
C921        C922   1.396       .  A
C921       Br933   1.919       .  S
C922        H925   1.084       .  S
C924        C926   1.388       .  A
C924        C930   1.399       .  A
C926        C927   1.398       .  A
C926        H931   1.085       .  S
C927        C928   1.447       .  A
C927       Br935   1.925   1_655  S
C928        C929   1.423       .  A
C929        C930   1.401       .  A
C929        H932   1.083       .  S
C930       Br936   1.917       .  S
C937        C938   1.432   1_545  A
C937        C942   1.420       .  A
C938        C939   1.394   1_565  A
C938       Br954   1.929       .  S
C939        C940   1.395       .  A
C939        H943   1.084   1_545  S
C940        C944   1.472       .  S
C940        C941   1.398       .  A
C941        C942   1.395       .  A
C941       Br953   1.918       .  S
C942        H945   1.078       .  S
C944        C946   1.405       .  A
C944        C950   1.406   1_545  A
C946        C947   1.402       .  A
C946        H951   1.083       .  S
C947        C948   1.407       .  A
C947       Br955   1.918       .  S
C948        C949   1.402   1_545  A
C949        C950   1.390       .  A
C949        H952   1.084       .  S
C950       Br956   1.922       .  S
C957        C958   1.439       .  A
C957        C962   1.418   1_545  A
C958        C959   1.396       .  A
C958       Br974   1.926       .  S
C959        C960   1.390       .  A
C959        H963   1.084       .  S
C960        C964   1.475       .  S
C960        C961   1.402       .  A
C961        C962   1.400   1_545  A
C961       Br973   1.918   1_545  S
C962        H965   1.076       .  S
C964        C966   1.399       .  A
C964        C970   1.409       .  A
C966        C967   1.394       .  A
C966        H971   1.084       .  S
C967        C968   1.410       .  A
C967       Br975   1.920   1_545  S
C968        C969   1.403       .  A
C969        C970   1.402       .  A
C969        H972   1.083       .  S
C970       Br976   1.917       .  S
C977        C978   1.439       .  A
C977        C982   1.424       .  A
C978        C979   1.399       .  A
C978       Br994   1.931       .  S
C979        C980   1.393       .  A
C979        H983   1.084       .  S
C980        C984   1.478       .  S
C980        C981   1.400       .  A
C981        C982   1.401       .  A
C981       Br993   1.917       .  S
C982        H985   1.083       .  S
C984        C986   1.402       .  A
C984        C990   1.408       .  A
C986        C987   1.401       .  A
C986        H991   1.083       .  S
C987        C988   1.408       .  A
C987       Br995   1.914       .  S
C988        C989   1.404       .  A
C989        C990   1.399       .  A
C989        H992   1.084       .  S
C990       Br996   1.917       .  S
C997        C998   1.410       .  A
C997       C1002   1.405       .  A
C998        C999   1.402       .  A
C998      Br1014   1.917       .  S
C999       C1000   1.405       .  A
C999       H1003   1.083       .  S
C1000      C1004   1.483       .  S
C1000      C1001   1.408       .  A
C1001      C1002   1.397       .  A
C1001     Br1013   1.922       .  S
C1002      H1005   1.084       .  S
C1004      C1006   1.397       .  A
C1004      C1010   1.398       .  A
C1006      C1007   1.400       .  A
C1006      H1011   1.084       .  S
C1007      C1008   1.430       .  A
C1007     Br1015   1.916       .  S
C1008      C1009   1.430       .  A
C1009      C1010   1.398       .  A
C1009      H1012   1.077       .  S
C1010     Br1016   1.922       .  S
C1017      C1018   1.434       .  A
C1017      C1022   1.424       .  A
C1018      C1019   1.398       .  A
C1018     Br1034   1.915       .  S
C1019      C1020   1.395       .  A
C1019      H1023   1.084       .  S
C1020      C1024   1.484       .  S
C1020      C1021   1.402       .  A
C1021      C1022   1.401       .  A
C1021     Br1033   1.920       .  S
C1022      H1025   1.077       .  S
C1024      C1026   1.406       .  A
C1024      C1030   1.409       .  A
C1026      C1027   1.403       .  A
C1026      H1031   1.083       .  S
C1027      C1028   1.411       .  A
C1027     Br1035   1.917       .  S
C1028      C1029   1.404       .  A
C1029      C1030   1.396       .  A
C1029      H1032   1.084       .  S
C1030     Br1036   1.921       .  S
C1037      C1038   1.444       .  A
C1037      C1042   1.420       .  A
C1038      C1039   1.405       .  A
C1038     Br1054   1.930       .  S
C1039      C1040   1.396       .  A
C1039      H1043   1.084       .  S
C1040      C1044   1.483       .  S
C1040      C1041   1.402       .  A
C1041      C1042   1.391       .  A
C1041     Br1053   1.921       .  S
C1042      H1045   1.082       .  S
C1044      C1046   1.394       .  A
C1044      C1050   1.411       .  A
C1046      C1047   1.388       .  A
C1046      H1051   1.084       .  S
C1047      C1048   1.425       .  A
C1047     Br1055   1.929       .  S
C1048      C1049   1.411       .  A
C1049      C1050   1.408       .  A
C1049      H1052   1.083       .  S
C1050     Br1056   1.918       .  S
C1057      C1058   1.434   1_565  A
C1057      C1062   1.423       .  A
C1058      C1059   1.400       .  A
C1058     Br1074   1.916       .  S
C1059      C1060   1.395   1_545  A
C1059      H1063   1.084       .  S
C1060      C1064   1.481       .  S
C1060      C1061   1.399       .  A
C1061      C1062   1.402       .  A
C1061     Br1073   1.917       .  S
C1062      H1065   1.075       .  S
C1064      C1066   1.407       .  A
C1064      C1070   1.402       .  A
C1066      C1067   1.408       .  A
C1066      H1071   1.083       .  S
C1067      C1068   1.410       .  A
C1067     Br1075   1.916       .  S
C1068      C1069   1.411       .  A
C1069      C1070   1.394       .  A
C1069      H1072   1.084   1_565  S
C1070     Br1076   1.919   1_565  S
C1077      C1078   1.431       .  A
C1077      C1082   1.425   1_545  A
C1078      C1079   1.402       .  A
C1078     Br1094   1.922       .  S
C1079      C1080   1.399   1_545  A
C1079      H1083   1.084       .  S
C1080      C1084   1.477       .  S
C1080      C1081   1.395       .  A
C1081      C1082   1.391       .  A
C1081     Br1093   1.921       .  S
C1082      H1085   1.077       .  S
C1084      C1086   1.405       .  A
C1084      C1090   1.405       .  A
C1086      C1087   1.401       .  A
C1086      H1091   1.084       .  S
C1087      C1088   1.410       .  A
C1087     Br1095   1.918       .  S
C1088      C1089   1.406       .  A
C1089      C1090   1.393       .  A
C1089      H1092   1.084       .  S
C1090     Br1096   1.920       .  S
C1097      C1098   1.410       .  A
C1097      C1102   1.405       .  A
C1098      C1099   1.403       .  A
C1098     Br1114   1.919       .  S
C1099      C1100   1.404       .  A
C1099      H1103   1.083       .  S
C1100      C1104   1.478       .  S
C1100      C1101   1.406       .  A
C1101      C1102   1.398       .  A
C1101     Br1113   1.919       .  S
C1102      H1105   1.084       .  S
C1104      C1106   1.396       .  A
C1104      C1110   1.399       .  A
C1106      C1107   1.403       .  A
C1106      H1111   1.084       .  S
C1107      C1108   1.435       .  A
C1107     Br1115   1.926       .  S
C1108      C1109   1.424       .  A
C1109      C1110   1.395       .  A
C1109      H1112   1.083       .  S
C1110     Br1116   1.919       .  S
C1117      C1118   1.416       .  A
C1117      C1122   1.412       .  A
C1118      C1119   1.407       .  A
C1118     Br1134   1.919       .  S
C1119      C1120   1.405       .  A
C1119      H1123   1.083       .  S
C1120      C1124   1.475       .  S
C1120      C1121   1.400       .  A
C1121      C1122   1.389       .  A
C1121     Br1133   1.922       .  S
C1122      H1125   1.083       .  S
C1124      C1126   1.399       .  A
C1124      C1130   1.395       .  A
C1126      C1127   1.406       .  A
C1126      H1131   1.084       .  S
C1127      C1128   1.434       .  A
C1127     Br1135   1.924       .  S
C1128      C1129   1.424       .  A
C1129      C1130   1.390       .  A
C1129      H1132   1.076       .  S
C1130     Br1136   1.922       .  S
C1137      C1138   1.432       .  A
C1137      C1142   1.422       .  A
C1138      C1139   1.396       .  A
C1138     Br1154   1.913       .  S
C1139      C1140   1.393       .  A
C1139      H1143   1.084       .  S
C1140      C1144   1.477       .  S
C1140      C1141   1.401       .  A
C1141      C1142   1.400       .  A
C1141     Br1153   1.919       .  S
C1142      H1145   1.079       .  S
C1144      C1146   1.404       .  A
C1144      C1150   1.408       .  A
C1146      C1147   1.401       .  A
C1146      H1151   1.083       .  S
C1147      C1148   1.409       .  A
C1147     Br1155   1.919       .  S
C1148      C1149   1.399       .  A
C1149      C1150   1.393       .  A
C1149      H1152   1.084       .  S
C1150     Br1156   1.917       .  S
C1157      C1158   1.446       .  A
C1157      C1162   1.422       .  A
C1158      C1159   1.395       .  A
C1158     Br1174   1.927       .  S
C1159      C1160   1.387       .  A
C1159      H1163   1.085       .  S
C1160      C1164   1.468       .  S
C1160      C1161   1.397       .  A
C1161      C1162   1.395       .  A
C1161     Br1173   1.918       .  S
C1162      H1165   1.082       .  S
C1164      C1166   1.400       .  A
C1164      C1170   1.408       .  A
C1166      C1167   1.393       .  A
C1166      H1171   1.084       .  S
C1167      C1168   1.406       .  A
C1167     Br1175   1.920       .  S
C1168      C1169   1.400       .  A
C1169      C1170   1.397       .  A
C1169      H1172   1.084       .  S
C1170     Br1176   1.918       .  S
C1177      C1178   1.435   1_655  A
C1177      C1182   1.421       .  A
C1178      C1179   1.402       .  A
C1178     Br1194   1.915       .  S
C1179      C1180   1.394   1_455  A
C1179      H1183   1.084       .  S
C1180      C1184   1.496       .  S
C1180      C1181   1.407       .  A
C1181      C1182   1.410       .  A
C1181     Br1193   1.917       .  S
C1182      H1185   1.079       .  S
C1184      C1186   1.403   1_655  A
C1184      C1190   1.409       .  A
C1186      C1187   1.407       .  A
C1186      H1191   1.084       .  S
C1187      C1188   1.422   1_455  A
C1187     Br1195   1.921       .  S
C1188      C1189   1.412       .  A
C1189      C1190   1.406       .  A
C1189      H1192   1.083       .  S
C1190     Br1196   1.918       .  S
C1197      C1198   1.444       .  A
C1197      C1202   1.420       .  A
C1198      C1199   1.402       .  A
C1198     Br1214   1.929       .  S
C1199      C1200   1.392       .  A
C1199      H1203   1.084       .  S
C1200      C1204   1.484       .  S
C1200      C1201   1.400       .  A
C1201      C1202   1.400       .  A
C1201     Br1213   1.917   1_655  S
C1202      H1205   1.082       .  S
C1204      C1206   1.397       .  A
C1204      C1210   1.405   1_655  A
C1206      C1207   1.402       .  A
C1206      H1211   1.084       .  S
C1207      C1208   1.427       .  A
C1207     Br1215   1.925       .  S
C1208      C1209   1.412   1_655  A
C1209      C1210   1.405       .  A
C1209      H1212   1.083       .  S
C1210     Br1216   1.918       .  S
C1217      C1218   1.424       .  A
C1217      C1222   1.410       .  A
C1218      C1219   1.401       .  A
C1218     Br1234   1.925       .  S
C1219      C1220   1.401       .  A
C1219      H1223   1.084       .  S
C1220      C1224   1.479       .  S
C1220      C1221   1.404       .  A
C1221      C1222   1.395       .  A
C1221     Br1233   1.919       .  S
C1222      H1225   1.083       .  S
C1224      C1226   1.399       .  A
C1224      C1230   1.399       .  A
C1226      C1227   1.406       .  A
C1226      H1231   1.084       .  S
C1227      C1228   1.436       .  A
C1227     Br1235   1.926       .  S
C1228      C1229   1.418       .  A
C1229      C1230   1.391       .  A
C1229      H1232   1.079       .  S
C1230     Br1236   1.920       .  S
C1237      C1238   1.420       .  A
C1237      C1242   1.407       .  A
C1238      C1239   1.404       .  A
C1238     Br1254   1.924       .  S
C1239      C1240   1.404       .  A
C1239      H1243   1.084       .  S
C1240      C1244   1.482       .  S
C1240      C1241   1.403       .  A
C1241      C1242   1.396       .  A
C1241     Br1253   1.918       .  S
C1242      H1245   1.080       .  S
C1244      C1246   1.396       .  A
C1244      C1250   1.398       .  A
C1246      C1247   1.403       .  A
C1246      H1251   1.084       .  S
C1247      C1248   1.440       .  A
C1247     Br1255   1.926       .  S
C1248      C1249   1.422       .  A
C1249      C1250   1.396       .  A
C1249      H1252   1.080       .  S
C1250     Br1256   1.919       .  S
C1257      C1258   1.410       .  A
C1257      C1262   1.403       .  A
C1258      C1259   1.402       .  A
C1258     Br1274   1.917       .  S
C1259      C1260   1.403       .  A
C1259      H1263   1.083       .  S
C1260      C1264   1.480       .  S
C1260      C1261   1.409       .  A
C1261      C1262   1.399       .  A
C1261     Br1273   1.920       .  S
C1262      H1265   1.084       .  S
C1264      C1266   1.399       .  A
C1264      C1270   1.396       .  A
C1266      C1267   1.409       .  A
C1266      H1271   1.083       .  S
C1267      C1268   1.436       .  A
C1267     Br1275   1.923       .  S
C1268      C1269   1.424       .  A
C1269      C1270   1.390       .  A
C1269      H1272   1.072       .  S
C1270     Br1276   1.923       .  S
C1277      C1278   1.409       .  A
C1277      C1282   1.402       .  A
C1278      C1279   1.391       .  A
C1278     Br1294   1.923       .  S
C1279      C1280   1.399       .  A
C1279      H1283   1.084       .  S
C1280      C1284   1.460       .  S
C1280      C1281   1.404       .  A
C1281      C1282   1.393       .  A
C1281     Br1293   1.917       .  S
C1282      H1285   1.084       .  S
C1284      C1286   1.390       .  A
C1284      C1290   1.393       .  A
C1286      C1287   1.399       .  A
C1286      H1291   1.084       .  S
C1287      C1288   1.440       .  A
C1287     Br1295   1.924       .  S
C1288      C1289   1.425       .  A
C1289      C1290   1.388       .  A
C1289      H1292   1.083       .  S
C1290     Br1296   1.922       .  S
C1297      C1298   1.428       .  A
C1297      C1302   1.418       .  A
C1298      C1299   1.402       .  A
C1298     Br1314   1.912       .  S
C1299      C1300   1.399       .  A
C1299      H1303   1.083       .  S
C1300      C1304   1.477       .  S
C1300      C1301   1.403       .  A
C1301      C1302   1.392       .  A
C1301     Br1313   1.920       .  S
C1302      H1305   1.079       .  S
C1304      C1306   1.405       .  A
C1304      C1310   1.407       .  A
C1306      C1307   1.394       .  A
C1306      H1311   1.083       .  S
C1307      C1308   1.404       .  A
C1307     Br1315   1.920       .  S
C1308      C1309   1.406       .  A
C1309      C1310   1.400       .  A
C1309      H1312   1.084       .  S
C1310     Br1316   1.919       .  S
C1317      C1318   1.415       .  A
C1317      C1322   1.408       .  A
C1318      C1319   1.401       .  A
C1318     Br1334   1.920       .  S
C1319      C1320   1.400       .  A
C1319      H1323   1.084       .  S
C1320      C1324   1.486       .  S
C1320      C1321   1.410       .  A
C1321      C1322   1.405       .  A
C1321     Br1333   1.918       .  S
C1322      H1325   1.083       .  S
C1324      C1326   1.399       .  A
C1324      C1330   1.398       .  A
C1326      C1327   1.409       .  A
C1326      H1331   1.084       .  S
C1327      C1328   1.439       .  A
C1327     Br1335   1.926       .  S
C1328      C1329   1.427       .  A
C1329      C1330   1.396       .  A
C1329      H1332   1.082       .  S
C1330     Br1336   1.920       .  S
C1337      C1338   1.414       .  A
C1337      C1342   1.407       .  A
C1338      C1339   1.399       .  A
C1338     Br1354   1.921       .  S
C1339      C1340   1.402       .  A
C1339      H1343   1.084       .  S
C1340      C1344   1.483       .  S
C1340      C1341   1.408       .  A
C1341      C1342   1.400       .  A
C1341     Br1353   1.919       .  S
C1342      H1345   1.083       .  S
C1344      C1346   1.395       .  A
C1344      C1350   1.403       .  A
C1346      C1347   1.397       .  A
C1346      H1351   1.084       .  S
C1347      C1348   1.435       .  A
C1347     Br1355   1.926       .  S
C1348      C1349   1.419       .  A
C1349      C1350   1.399       .  A
C1349      H1352   1.076       .  S
C1350     Br1356   1.920       .  S
C1357      C1358   1.438       .  A
C1357      C1362   1.420       .  A
C1358      C1359   1.387       .  A
C1358     Br1374   1.927       .  S
C1359      C1360   1.387       .  A
C1359      H1363   1.085       .  S
C1360      C1364   1.468       .  S
C1360      C1361   1.401       .  A
C1361      C1362   1.402       .  A
C1361     Br1373   1.917       .  S
C1362      H1365   1.077       .  S
C1364      C1366   1.402       .  A
C1364      C1370   1.402       .  A
C1366      C1367   1.399       .  A
C1366      H1371   1.084       .  S
C1367      C1368   1.414       .  A
C1367     Br1375   1.922       .  S
C1368      C1369   1.409       .  A
C1369      C1370   1.394       .  A
C1369      H1372   1.083       .  S
C1370     Br1376   1.919       .  S
C1377      C1378   1.414       .  A
C1377      C1382   1.406   1_655  A
C1378      C1379   1.405       .  A
C1378     Br1394   1.920       .  S
C1379      C1380   1.405       .  A
C1379      H1383   1.083       .  S
C1380      C1384   1.481       .  S
C1380      C1381   1.405   1_655  A
C1381      C1382   1.395       .  A
C1381     Br1393   1.919       .  S
C1382      H1385   1.084       .  S
C1384      C1386   1.395   1_655  A
C1384      C1390   1.401       .  A
C1386      C1387   1.399       .  A
C1386      H1391   1.084       .  S
C1387      C1388   1.436   1_455  A
C1387     Br1395   1.925       .  S
C1388      C1389   1.423       .  A
C1389      C1390   1.401       .  A
C1389      H1392   1.077       .  S
C1390     Br1396   1.919       .  S
C1397      C1398   1.424       .  A
C1397      C1402   1.409   1_655  A
C1398      C1399   1.404       .  A
C1398     Br1414   1.921       .  S
C1399      C1400   1.399       .  A
C1399      H1403   1.084       .  S
C1400      C1404   1.489       .  S
C1400      C1401   1.409   1_655  A
C1401      C1402   1.403       .  A
C1401     Br1413   1.920       .  S
C1402      H1405   1.083       .  S
C1404      C1406   1.404       .  A
C1404      C1410   1.397       .  A
C1406      C1407   1.412       .  A
C1406      H1411   1.083       .  S
C1407      C1408   1.431   1_655  A
C1407     Br1415   1.922       .  S
C1408      C1409   1.428       .  A
C1409      C1410   1.393   1_455  A
C1409      H1412   1.077   1_455  S
C1410     Br1416   1.924       .  S
C1417      C1418   1.437       .  A
C1417      C1422   1.421       .  A
C1418      C1419   1.398       .  A
C1418     Br1434   1.920       .  S
C1419      C1420   1.391       .  A
C1419      H1423   1.084       .  S
C1420      C1424   1.476       .  S
C1420      C1421   1.399       .  A
C1421      C1422   1.399       .  A
C1421     Br1433   1.918       .  S
C1422      H1425   1.075       .  S
C1424      C1426   1.398       .  A
C1424      C1430   1.403       .  A
C1426      C1427   1.398       .  A
C1426      H1431   1.084       .  S
C1427      C1428   1.419       .  A
C1427     Br1435   1.919       .  S
C1428      C1429   1.412       .  A
C1429      C1430   1.400       .  A
C1429      H1432   1.083       .  S
C1430     Br1436   1.917       .  S
C1437      C1438   1.424       .  A
C1437      C1442   1.405       .  A
C1438      C1439   1.395       .  A
C1438     Br1454   1.917       .  S
C1439      C1440   1.392       .  A
C1439      H1443   1.084       .  S
C1440      C1444   1.471       .  S
C1440      C1441   1.406       .  A
C1441      C1442   1.401       .  A
C1441     Br1453   1.919       .  S
C1442      H1445   1.080       .  S
C1444      C1446   1.391       .  A
C1444      C1450   1.398       .  A
C1446      C1447   1.397       .  A
C1446      H1451   1.084       .  S
C1447      C1448   1.435       .  A
C1447     Br1455   1.917       .  S
C1448      C1449   1.420       .  A
C1449      C1450   1.397       .  A
C1449      H1452   1.077       .  S
C1450     Br1456   1.919       .  S
C1457      C1458   1.420       .  A
C1457      C1462   1.406       .  A
C1458      C1459   1.393       .  A
C1458     Br1474   1.923       .  S
C1459      C1460   1.396       .  A
C1459      H1463   1.084       .  S
C1460      C1464   1.465       .  S
C1460      C1461   1.405       .  A
C1461      C1462   1.393       .  A
C1461     Br1473   1.919       .  S
C1462      H1465   1.083       .  S
C1464      C1466   1.395       .  A
C1464      C1470   1.400       .  A
C1466      C1467   1.399       .  A
C1466      H1471   1.084       .  S
C1467      C1468   1.432       .  A
C1467     Br1475   1.924       .  S
C1468      C1469   1.417       .  A
C1469      C1470   1.388       .  A
C1469      H1472   1.081       .  S
C1470     Br1476   1.922       .  S
C1477      C1478   1.420       .  A
C1477      C1482   1.414       .  A
C1478      C1479   1.407       .  A
C1478     Br1494   1.922       .  S
C1479      C1480   1.404       .  A
C1479      H1483   1.084       .  S
C1480      C1484   1.493       .  S
C1480      C1481   1.406       .  A
C1481      C1482   1.405       .  A
C1481     Br1493   1.918       .  S
C1482      H1485   1.083       .  S
C1484      C1486   1.396       .  A
C1484      C1490   1.403       .  A
C1486      C1487   1.407       .  A
C1486      H1491   1.084       .  S
C1487      C1488   1.442       .  A
C1487     Br1495   1.929       .  S
C1488      C1489   1.422       .  A
C1489      C1490   1.402       .  A
C1489      H1492   1.082       .  S
C1490     Br1496   1.918       .  S
C1497      C1498   1.406       .  A
C1497      C1502   1.404       .  A
C1498      C1499   1.401       .  A
C1498     Br1514   1.920       .  S
C1499      C1500   1.408       .  A
C1499      H1503   1.083       .  S
C1500      C1504   1.492       .  S
C1500      C1501   1.411       .  A
C1501      C1502   1.404       .  A
C1501     Br1513   1.919       .  S
C1502      H1505   1.084       .  S
C1504      C1506   1.405       .  A
C1504      C1510   1.399       .  A
C1506      C1507   1.413       .  A
C1506      H1511   1.083       .  S
C1507      C1508   1.431       .  A
C1507     Br1515   1.921       .  S
C1508      C1509   1.426       .  A
C1509      C1510   1.390       .  A
C1509      H1512   1.076   1_565  S
C1510     Br1516   1.925       .  S
C1517      C1518   1.435       .  A
C1517      C1522   1.421       .  A
C1518      C1519   1.389       .  A
C1518     Br1534   1.927   1_565  S
C1519      C1520   1.392       .  A
C1519      H1523   1.085       .  S
C1520      C1524   1.480       .  S
C1520      C1521   1.403       .  A
C1521      C1522   1.404       .  A
C1521     Br1533   1.917       .  S
C1522      H1525   1.079       .  S
C1524      C1526   1.399       .  A
C1524      C1530   1.407       .  A
C1526      C1527   1.395       .  A
C1526      H1531   1.084       .  S
C1527      C1528   1.422       .  A
C1527     Br1535   1.925       .  S
C1528      C1529   1.411       .  A
C1529      C1530   1.402       .  A
C1529      H1532   1.083       .  S
C1530     Br1536   1.919       .  S
C1537      C1538   1.430       .  A
C1537      C1542   1.425       .  A
C1538      C1539   1.406       .  A
C1538     Br1554   1.911       .  S
C1539      C1540   1.399       .  A
C1539      H1543   1.084       .  S
C1540      C1544   1.484       .  S
C1540      C1541   1.400       .  A
C1541      C1542   1.396       .  A
C1541     Br1553   1.920       .  S
C1542      H1545   1.080   1_565  S
C1544      C1546   1.404       .  A
C1544      C1550   1.411       .  A
C1546      C1547   1.401       .  A
C1546      H1551   1.083       .  S
C1547      C1548   1.408       .  A
C1547     Br1555   1.917       .  S
C1548      C1549   1.402       .  A
C1549      C1550   1.402       .  A
C1549      H1552   1.084       .  S
C1550     Br1556   1.920       .  S
C1557      C1558   1.410       .  A
C1557      C1562   1.402       .  A
C1558      C1559   1.396       .  A
C1558     Br1574   1.921       .  S
C1559      C1560   1.400       .  A
C1559      H1563   1.084       .  S
C1560      C1564   1.473       .  S
C1560      C1561   1.409       .  A
C1561      C1562   1.398       .  A
C1561     Br1573   1.920       .  S
C1562      H1565   1.084       .  S
C1564      C1566   1.390       .  A
C1564      C1570   1.399       .  A
C1566      C1567   1.395       .  A
C1566      H1571   1.085       .  S
C1567      C1568   1.441       .  A
C1567     Br1575   1.927   1_565  S
C1568      C1569   1.417       .  A
C1569      C1570   1.398       .  A
C1569      H1572   1.077       .  S
C1570     Br1576   1.917       .  S
C1577      C1578   1.419       .  A
C1577      C1582   1.407       .  A
C1578      C1579   1.399       .  A
C1578     Br1594   1.921       .  S
C1579      C1580   1.401       .  A
C1579      H1583   1.084       .  S
C1580      C1584   1.489       .  S
C1580      C1581   1.411       .  A
C1581      C1582   1.401       .  A
C1581     Br1593   1.920       .  S
C1582      H1585   1.083       .  S
C1584      C1586   1.397       .  A
C1584      C1590   1.402       .  A
C1586      C1587   1.403       .  A
C1586      H1591   1.084       .  S
C1587      C1588   1.441       .  A
C1587     Br1595   1.930       .  S
C1588      C1589   1.421       .  A
C1589      C1590   1.397       .  A
C1589      H1592   1.082       .  S
C1590     Br1596   1.920       .  S
C1597      C1598   1.431       .  A
C1597      C1602   1.427       .  A
C1598      C1599   1.405       .  A
C1598     Br1614   1.920       .  S
C1599      C1600   1.398       .  A
C1599      H1603   1.084       .  S
C1600      C1604   1.474       .  S
C1600      C1601   1.393       .  A
C1601      C1602   1.390       .  A
C1601     Br1613   1.920       .  S
C1602      H1605   1.078       .  S
C1604      C1606   1.405       .  A
C1604      C1610   1.404       .  A
C1606      C1607   1.405       .  A
C1606      H1611   1.083       .  S
C1607      C1608   1.408       .  A
C1607     Br1615   1.916       .  S
C1608      C1609   1.407       .  A
C1609      C1610   1.393       .  A
C1609      H1612   1.084       .  S
C1610     Br1616   1.922       .  S
C1617      C1618   1.432       .  A
C1617      C1622   1.427       .  A
C1618      C1619   1.405       .  A
C1618     Br1634   1.914       .  S
C1619      C1620   1.397       .  A
C1619      H1623   1.084       .  S
C1620      C1624   1.488       .  S
C1620      C1621   1.400       .  A
C1621      C1622   1.400       .  A
C1621     Br1633   1.920       .  S
C1622      H1625   1.078       .  S
C1624      C1626   1.399       .  A
C1624      C1630   1.412       .  A
C1626      C1627   1.399       .  A
C1626      H1631   1.084       .  S
C1627      C1628   1.412       .  A
C1627     Br1635   1.908       .  S
C1628      C1629   1.405       .  A
C1629      C1630   1.408       .  A
C1629      H1632   1.083       .  S
C1630     Br1636   1.917       .  S
C1637      C1638   1.445       .  A
C1637      C1642   1.418       .  A
C1638      C1639   1.399       .  A
C1638     Br1654   1.932       .  S
C1639      C1640   1.390       .  A
C1639      H1643   1.084       .  S
C1640      C1644   1.479       .  S
C1640      C1641   1.403       .  A
C1641      C1642   1.401       .  A
C1641     Br1653   1.917       .  S
C1642      H1645   1.083       .  S
C1644      C1646   1.398       .  A
C1644      C1650   1.412       .  A
C1646      C1647   1.395       .  A
C1646      H1651   1.084       .  S
C1647      C1648   1.412       .  A
C1647     Br1655   1.919       .  S
C1648      C1649   1.404       .  A
C1649      C1650   1.406       .  A
C1649      H1652   1.083       .  S
C1650     Br1656   1.919       .  S
C1657      C1658   1.417   1_556  A
C1657      C1662   1.408       .  A
C1658      C1659   1.396       .  A
C1658     Br1674   1.920       .  S
C1659      C1660   1.401   1_554  A
C1659      H1663   1.084       .  S
C1660      C1664   1.492       .  S
C1660      C1661   1.414       .  A
C1661      C1662   1.402       .  A
C1661     Br1673   1.921       .  S
C1662      H1665   1.083       .  S
C1664      C1666   1.400       .  A
C1664      C1670   1.407   1_556  A
C1666      C1667   1.404       .  A
C1666      H1671   1.083       .  S
C1667      C1668   1.436       .  A
C1667     Br1675   1.928       .  S
C1668      C1669   1.417   1_556  A
C1669      C1670   1.394       .  A
C1669      H1672   1.080       .  S
C1670     Br1676   1.923       .  S
C1677      C1678   1.433   1_556  A
C1677      C1682   1.422       .  A
C1678      C1679   1.399       .  A
C1678     Br1694   1.928       .  S
C1679      C1680   1.398   1_554  A
C1679      H1683   1.084       .  S
C1680      C1684   1.476       .  S
C1680      C1681   1.397       .  A
C1681      C1682   1.397       .  A
C1681     Br1693   1.918       .  S
C1682      H1685   1.080       .  S
C1684      C1686   1.406       .  A
C1684      C1690   1.406       .  A
C1686      C1687   1.401       .  A
C1686      H1691   1.083       .  S
C1687      C1688   1.408       .  A
C1687     Br1695   1.920       .  S
C1688      C1689   1.401       .  A
C1689      C1690   1.393       .  A
C1689      H1692   1.084   1_556  S
C1690     Br1696   1.918   1_556  S
C1697      C1698   1.422       .  A
C1697      C1702   1.407   1_556  A
C1698      C1699   1.397       .  A
C1698     Br1714   1.928       .  S
C1699      C1700   1.401       .  A
C1699      H1703   1.084       .  S
C1700      C1704   1.480       .  S
C1700      C1701   1.406   1_556  A
C1701      C1702   1.396       .  A
C1701     Br1713   1.919       .  S
C1702      H1705   1.083       .  S
C1704      C1706   1.401   1_556  A
C1704      C1710   1.399       .  A
C1706      C1707   1.403       .  A
C1706      H1711   1.084       .  S
C1707      C1708   1.434   1_554  A
C1707     Br1715   1.927       .  S
C1708      C1709   1.423       .  A
C1709      C1710   1.390       .  A
C1709      H1712   1.082       .  S
C1710     Br1716   1.922       .  S
C1717      C1718   1.435       .  A
C1717      C1722   1.420   1_556  A
C1718      C1719   1.404       .  A
C1718     Br1734   1.923       .  S
C1719      C1720   1.397       .  A
C1719      H1723   1.084       .  S
C1720      C1724   1.477       .  S
C1720      C1721   1.399       .  A
C1721      C1722   1.391   1_556  A
C1721     Br1733   1.921   1_556  S
C1722      H1725   1.079       .  S
C1724      C1726   1.394   1_556  A
C1724      C1730   1.411       .  A
C1726      C1727   1.390       .  A
C1726      H1731   1.084       .  S
C1727      C1728   1.416   1_554  A
C1727     Br1735   1.917       .  S
C1728      C1729   1.406       .  A
C1729      C1730   1.408       .  A
C1729      H1732   1.083       .  S
C1730     Br1736   1.917       .  S
C1737      C1738   1.411       .  A
C1737      C1742   1.405       .  A
C1738      C1739   1.403       .  A
C1738     Br1754   1.921       .  S
C1739      C1740   1.407       .  A
C1739      H1743   1.083       .  S
C1740      C1744   1.485       .  S
C1740      C1741   1.408       .  A
C1741      C1742   1.396       .  A
C1741     Br1753   1.921       .  S
C1742      H1745   1.083       .  S
C1744      C1746   1.398       .  A
C1744      C1750   1.402       .  A
C1746      C1747   1.401       .  A
C1746      H1751   1.084       .  S
C1747      C1748   1.433       .  A
C1747     Br1755   1.922       .  S
C1748      C1749   1.421       .  A
C1749      C1750   1.398       .  A
C1749      H1752   1.077       .  S
C1750     Br1756   1.921       .  S
C1757      C1758   1.431       .  A
C1757      C1762   1.422       .  A
C1758      C1759   1.405       .  A
C1758     Br1774   1.921       .  S
C1759      C1760   1.402       .  A
C1759      H1763   1.084       .  S
C1760      C1764   1.488       .  S
C1760      C1761   1.401       .  A
C1761      C1762   1.395       .  A
C1761     Br1773   1.921       .  S
C1762      H1765   1.077       .  S
C1764      C1766   1.409       .  A
C1764      C1770   1.412       .  A
C1766      C1767   1.404       .  A
C1766      H1771   1.083       .  S
C1767      C1768   1.407       .  A
C1767     Br1775   1.919       .  S
C1768      C1769   1.399       .  A
C1769      C1770   1.394       .  A
C1769      H1772   1.084       .  S
C1770     Br1776   1.918       .  S
C1777      C1778   1.436   1_556  A
C1777      C1782   1.423       .  A
C1778      C1779   1.407       .  A
C1778     Br1794   1.924       .  S
C1779      C1780   1.398   1_554  A
C1779      H1783   1.084       .  S
C1780      C1784   1.485       .  S
C1780      C1781   1.398       .  A
C1781      C1782   1.396       .  A
C1781     Br1793   1.920       .  S
C1782      H1785   1.077       .  S
C1784      C1786   1.399   1_556  A
C1784      C1790   1.411       .  A
C1786      C1787   1.399       .  A
C1786      H1791   1.084       .  S
C1787      C1788   1.411   1_554  A
C1787     Br1795   1.912       .  S
C1788      C1789   1.406       .  A
C1789      C1790   1.408       .  A
C1789      H1792   1.083       .  S
C1790     Br1796   1.918       .  S
C1797      C1798   1.407       .  A
C1797      C1802   1.404       .  A
C1798      C1799   1.398   1_554  A
C1798     Br1814   1.913   1_564  S
C1799      C1800   1.403   1_556  A
C1799      H1803   1.084       .  S
C1800      C1804   1.474       .  S
C1800      C1801   1.406       .  A
C1801      C1802   1.396       .  A
C1801     Br1813   1.919       .  S
C1802      H1805   1.082       .  S
C1804      C1806   1.396   1_554  A
C1804      C1810   1.395       .  A
C1806      C1807   1.402       .  A
C1806      H1811   1.084       .  S
C1807      C1808   1.434       .  A
C1807     Br1815   1.924       .  S
C1808      C1809   1.426   1_556  A
C1809      C1810   1.392       .  A
C1809      H1812   1.076       .  S
C1810     Br1816   1.922       .  S
C1817      C1818   1.410   1_554  A
C1817      C1822   1.402       .  A
C1818      C1819   1.399       .  A
C1818     Br1834   1.920       .  S
C1819      C1820   1.402   1_556  A
C1819      H1823   1.084       .  S
C1820      C1824   1.473       .  S
C1820      C1821   1.406       .  A
C1821      C1822   1.396       .  A
C1821     Br1833   1.919       .  S
C1822      H1825   1.084       .  S
C1824      C1826   1.392       .  A
C1824      C1830   1.397   1_554  A
C1826      C1827   1.398       .  A
C1826      H1831   1.084       .  S
C1827      C1828   1.434       .  A
C1827     Br1835   1.918       .  S
C1828      C1829   1.423   1_554  A
C1829      C1830   1.396       .  A
C1829      H1832   1.077       .  S
C1830     Br1836   1.919       .  S
C1837      C1838   1.444       .  A
C1837      C1842   1.423   1_554  A
C1838      C1839   1.400       .  A
C1838     Br1854   1.929       .  S
C1839      C1840   1.392       .  A
C1839      H1843   1.085       .  S
C1840      C1844   1.479       .  S
C1840      C1841   1.399   1_554  A
C1841      C1842   1.398       .  A
C1841     Br1853   1.918       .  S
C1842      H1845   1.083       .  S
C1844      C1846   1.393       .  A
C1844      C1850   1.412       .  A
C1846      C1847   1.388       .  A
C1846      H1851   1.084       .  S
C1847      C1848   1.412       .  A
C1847     Br1855   1.908       .  S
C1848      C1849   1.406       .  A
C1849      C1850   1.410       .  A
C1849      H1852   1.083       .  S
C1850     Br1856   1.916       .  S
C1857      C1858   1.424   1_545  A
C1857      C1862   1.414       .  A
C1858      C1859   1.408       .  A
C1858     Br1874   1.922       .  S
C1859      C1860   1.402   1_565  A
C1859      H1863   1.083       .  S
C1860      C1864   1.493       .  S
C1860      C1861   1.407       .  A
C1861      C1862   1.403       .  A
C1861     Br1873   1.920       .  S
C1862      H1865   1.083       .  S
C1864      C1866   1.402       .  A
C1864      C1870   1.399       .  A
C1866      C1867   1.413       .  A
C1866      H1871   1.083       .  S
C1867      C1868   1.433       .  A
C1867     Br1875   1.922       .  S
C1868      C1869   1.425       .  A
C1869      C1870   1.396       .  A
C1869      H1872   1.077       .  S
C1870     Br1876   1.921       .  S
C1877      C1878   1.408       .  A
C1877      C1882   1.399       .  A
C1878      C1879   1.396       .  A
C1878     Br1894   1.921       .  S
C1879      C1880   1.403       .  A
C1879      H1883   1.084       .  S
C1880      C1884   1.478       .  S
C1880      C1881   1.410       .  A
C1881      C1882   1.399       .  A
C1881     Br1893   1.918       .  S
C1882      H1885   1.084       .  S
C1884      C1886   1.396   1_545  A
C1884      C1890   1.399       .  A
C1886      C1887   1.400       .  A
C1886      H1891   1.084       .  S
C1887      C1888   1.432   1_565  A
C1887     Br1895   1.922       .  S
C1888      C1889   1.424       .  A
C1889      C1890   1.396       .  A
C1889      H1892   1.078       .  S
C1890     Br1896   1.922       .  S
C1897      C1898   1.411       .  A
C1897      C1902   1.402       .  A
C1898      C1899   1.395       .  A
C1898     Br1914   1.921       .  S
C1899      C1900   1.400       .  A
C1899      H1903   1.084       .  S
C1900      C1904   1.470       .  S
C1900      C1901   1.406       .  A
C1901      C1902   1.398       .  A
C1901     Br1913   1.918       .  S
C1902      H1905   1.081       .  S
C1904      C1906   1.389       .  A
C1904      C1910   1.401       .  A
C1906      C1907   1.390       .  A
C1906      H1911   1.085       .  S
C1907      C1908   1.436       .  A
C1907     Br1915   1.927       .  S
C1908      C1909   1.421       .  A
C1909      C1910   1.401       .  A
C1909      H1912   1.078       .  S
C1910     Br1916   1.918       .  S
C1917      C1918   1.438       .  A
C1917      C1922   1.422       .  A
C1918      C1919   1.403       .  A
C1918     Br1934   1.924       .  S
C1919      C1920   1.396       .  A
C1919      H1923   1.084       .  S
C1920      C1924   1.486       .  S
C1920      C1921   1.400       .  A
C1921      C1922   1.397       .  A
C1921     Br1933   1.919       .  S
C1922      H1925   1.080       .  S
C1924      C1926   1.402       .  A
C1924      C1930   1.406       .  A
C1926      C1927   1.402       .  A
C1926      H1931   1.084       .  S
C1927      C1928   1.418       .  A
C1927     Br1935   1.920       .  S
C1928      C1929   1.412       .  A
C1929      C1930   1.401       .  A
C1929      H1932   1.082       .  S
C1930     Br1936   1.919       .  S
C1937      C1938   1.421       .  A
C1937      C1942   1.407       .  A
C1938      C1939   1.397       .  A
C1938     Br1954   1.924       .  S
C1939      C1940   1.400       .  A
C1939      H1943   1.084       .  S
C1940      C1944   1.476       .  S
C1940      C1941   1.408       .  A
C1941      C1942   1.396       .  A
C1941     Br1953   1.919       .  S
C1942      H1945   1.083       .  S
C1944      C1946   1.391       .  A
C1944      C1950   1.403       .  A
C1946      C1947   1.390       .  A
C1946      H1951   1.085       .  S
C1947      C1948   1.435       .  A
C1947     Br1955   1.921       .  S
C1948      C1949   1.420       .  A
C1949      C1950   1.403       .  A
C1949      H1952   1.078       .  S
C1950     Br1956   1.918       .  S
C1957      C1958   1.442       .  A
C1957      C1962   1.416       .  A
C1958      C1959   1.402       .  A
C1958     Br1974   1.929       .  S
C1959      C1960   1.393       .  A
C1959      H1963   1.084       .  S
C1960      C1964   1.482       .  S
C1960      C1961   1.401       .  A
C1961      C1962   1.398       .  A
C1961     Br1973   1.919       .  S
C1962      H1965   1.078       .  S
C1964      C1966   1.404       .  A
C1964      C1970   1.406       .  A
C1966      C1967   1.404       .  A
C1966      H1971   1.083       .  S
C1967      C1968   1.417       .  A
C1967     Br1975   1.923       .  S
C1968      C1969   1.407       .  A
C1969      C1970   1.395       .  A
C1969      H1972   1.083       .  S
C1970     Br1976   1.920       .  S
C1977      C1978   1.411       .  A
C1977      C1982   1.403       .  A
C1978      C1979   1.408       .  A
C1978     Br1994   1.918       .  S
C1979      C1980   1.407       .  A
C1979      H1983   1.083       .  S
C1980      C1984   1.486       .  S
C1980      C1981   1.406       .  A
C1981      C1982   1.398       .  A
C1981     Br1993   1.918       .  S
C1982      H1985   1.083       .  S
C1984      C1986   1.394       .  A
C1984      C1990   1.404       .  A
C1986      C1987   1.401       .  A
C1986      H1991   1.084       .  S
C1987      C1988   1.436       .  A
C1987     Br1995   1.926       .  S
C1988      C1989   1.420       .  A
C1989      C1990   1.405       .  A
C1989      H1992   1.078       .  S
C1990     Br1996   1.919       .  S
C1997      C1998   1.424       .  A
C1997      C2002   1.410       .  A
C1998      C1999   1.405       .  A
C1998     Br2014   1.923       .  S
C1999      C2000   1.400       .  A
C1999      H2003   1.084       .  S
C2000      C2004   1.486       .  S
C2000      C2001   1.407       .  A
C2001      C2002   1.402       .  A
C2001     Br2013   1.919       .  S
C2002      H2005   1.083       .  S
C2004      C2006   1.395       .  A
C2004      C2010   1.401       .  A
C2006      C2007   1.400       .  A
C2006      H2011   1.084       .  S
C2007      C2008   1.433       .  A
C2007     Br2015   1.915       .  S
C2008      C2009   1.425       .  A
C2009      C2010   1.402       .  A
C2009      H2012   1.078       .  S
C2010     Br2016   1.918       .  S
C2017      C2018   1.437       .  A
C2017      C2022   1.419       .  A
C2018      C2019   1.392       .  A
C2018     Br2034   1.925   1_554  S
C2019      C2020   1.392       .  A
C2019      H2023   1.085       .  S
C2020      C2024   1.481       .  S
C2020      C2021   1.404       .  A
C2021      C2022   1.405       .  A
C2021     Br2033   1.917       .  S
C2022      H2025   1.079       .  S
C2024      C2026   1.403       .  A
C2024      C2030   1.412       .  A
C2026      C2027   1.401       .  A
C2026      H2031   1.083       .  S
C2027      C2028   1.409       .  A
C2027     Br2035   1.916       .  S
C2028      C2029   1.399       .  A
C2029      C2030   1.398       .  A
C2029      H2032   1.084       .  S
C2030     Br2036   1.921       .  S
C2037      C2038   1.420       .  A
C2037      C2042   1.410       .  A
C2038      C2039   1.399       .  A
C2038     Br2054   1.923       .  S
C2039      C2040   1.399       .  A
C2039      H2043   1.084       .  S
C2040      C2044   1.475       .  S
C2040      C2041   1.404       .  A
C2041      C2042   1.395       .  A
C2041     Br2053   1.919       .  S
C2042      H2045   1.083       .  S
C2044      C2046   1.396       .  A
C2044      C2050   1.397       .  A
C2046      C2047   1.404       .  A
C2046      H2051   1.084       .  S
C2047      C2048   1.439       .  A
C2047     Br2055   1.929       .  S
C2048      C2049   1.423       .  A
C2049      C2050   1.392       .  A
C2049      H2052   1.082       .  S
C2050     Br2056   1.920       .  S
C2057      C2058   1.408       .  A
C2057      C2062   1.406       .  A
C2058      C2059   1.396       .  A
C2058     Br2074   1.916       .  S
C2059      C2060   1.403       .  A
C2059      H2063   1.084       .  S
C2060      C2064   1.482       .  S
C2060      C2061   1.410       .  A
C2061      C2062   1.402       .  A
C2061     Br2073   1.918       .  S
C2062      H2065   1.084       .  S
C2064      C2066   1.399       .  A
C2064      C2070   1.400       .  A
C2066      C2067   1.406       .  A
C2066      H2071   1.084       .  S
C2067      C2068   1.433       .  A
C2067     Br2075   1.922       .  S
C2068      C2069   1.422       .  A
C2069      C2070   1.392       .  A
C2069      H2072   1.072   1_554  S
C2070     Br2076   1.924       .  S
C2077      C2078   1.435       .  A
C2077      C2082   1.423       .  A
C2078      C2079   1.404       .  A
C2078     Br2094   1.921       .  S
C2079      C2080   1.397       .  A
C2079      H2083   1.084       .  S
C2080      C2084   1.489       .  S
C2080      C2081   1.401       .  A
C2081      C2082   1.399       .  A
C2081     Br2093   1.919       .  S
C2082      H2085   1.077       .  S
C2084      C2086   1.404       .  A
C2084      C2090   1.406       .  A
C2086      C2087   1.404       .  A
C2086      H2091   1.084       .  S
C2087      C2088   1.416       .  A
C2087     Br2095   1.916       .  S
C2088      C2089   1.409       .  A
C2089      C2090   1.401       .  A
C2089      H2092   1.083       .  S
C2090     Br2096   1.917       .  S
C2097      C2098   1.418       .  A
C2097      C2102   1.405       .  A
C2098      C2099   1.401       .  A
C2098     Br2114   1.922       .  S
C2099      C2100   1.400       .  A
C2099      H2103   1.084       .  S
C2100      C2104   1.482       .  S
C2100      C2101   1.408       .  A
C2101      C2102   1.401       .  A
C2101     Br2113   1.917       .  S
C2102      H2105   1.082       .  S
C2104      C2106   1.393       .  A
C2104      C2110   1.401       .  A
C2106      C2107   1.400       .  A
C2106      H2111   1.084       .  S
C2107      C2108   1.438       .  A
C2107     Br2115   1.926       .  S
C2108      C2109   1.422       .  A
C2109      C2110   1.402       .  A
C2109      H2112   1.076       .  S
C2110     Br2116   1.919       .  S
C2117      C2118   1.414       .  A
C2117      C2122   1.406       .  A
C2118      C2119   1.405       .  A
C2118     Br2134   1.918       .  S
C2119      C2120   1.406       .  A
C2119      H2123   1.083       .  S
C2120      C2124   1.489       .  S
C2120      C2121   1.409       .  A
C2121      C2122   1.395       .  A
C2121     Br2133   1.921       .  S
C2122      H2125   1.084       .  S
C2124      C2126   1.399       .  A
C2124      C2130   1.400       .  A
C2126      C2127   1.400       .  A
C2126      H2131   1.084       .  S
C2127      C2128   1.437       .  A
C2127     Br2135   1.929       .  S
C2128      C2129   1.426       .  A
C2129      C2130   1.399       .  A
C2129      H2132   1.083       .  S
C2130     Br2136   1.919       .  S
C2137      C2138   1.408       .  A
C2137      C2142   1.404   1_545  A
C2138      C2139   1.395       .  A
C2138     Br2154   1.915       .  S
C2139      C2140   1.399       .  A
C2139      H2143   1.084       .  S
C2140      C2144   1.478       .  S
C2140      C2141   1.410   1_545  A
C2141      C2142   1.404       .  A
C2141     Br2153   1.918       .  S
C2142      H2145   1.083       .  S
C2144      C2146   1.397   1_545  A
C2144      C2150   1.397       .  A
C2146      C2147   1.406       .  A
C2146      H2151   1.084       .  S
C2147      C2148   1.440   1_565  A
C2147     Br2155   1.926       .  S
C2148      C2149   1.424       .  A
C2149      C2150   1.393       .  A
C2149      H2152   1.081       .  S
C2150     Br2156   1.920       .  S
C2157      C2158   1.445   1_545  A
C2157      C2162   1.421       .  A
C2158      C2159   1.400       .  A
C2158     Br2174   1.933       .  S
C2159      C2160   1.393   1_565  A
C2159      H2163   1.085       .  S
C2160      C2164   1.495       .  S
C2160      C2161   1.407       .  A
C2161      C2162   1.409       .  A
C2161     Br2173   1.918       .  S
C2162      H2165   1.083       .  S
C2164      C2166   1.408       .  A
C2164      C2170   1.411   1_545  A
C2166      C2167   1.404       .  A
C2166      H2171   1.084       .  S
C2167      C2168   1.411       .  A
C2167     Br2175   1.920       .  S
C2168      C2169   1.410   1_545  A
C2169      C2170   1.405       .  A
C2169      H2172   1.084       .  S
C2170     Br2176   1.920       .  S
C2177      C2178   1.426       .  A
C2177      C2182   1.405       .  A
C2178      C2179   1.398       .  A
C2178     Br2194   1.927       .  S
C2179      C2180   1.396       .  A
C2179      H2183   1.084       .  S
C2180      C2184   1.468       .  S
C2180      C2181   1.404       .  A
C2181      C2182   1.392       .  A
C2181     Br2193   1.918       .  S
C2182      H2185   1.083       .  S
C2184      C2186   1.391       .  A
C2184      C2190   1.393       .  A
C2186      C2187   1.400       .  A
C2186      H2191   1.085       .  S
C2187      C2188   1.442       .  A
C2187     Br2195   1.924       .  S
C2188      C2189   1.427       .  A
C2189      C2190   1.393       .  A
C2189      H2192   1.083       .  S
C2190     Br2196   1.919       .  S
C2197      C2198   1.436       .  A
C2197      C2202   1.423       .  A
C2198      C2199   1.402       .  A
C2198     Br2214   1.925       .  S
C2199      C2200   1.395       .  A
C2199      H2203   1.084       .  S
C2200      C2204   1.481       .  S
C2200      C2201   1.400       .  A
C2201      C2202   1.398       .  A
C2201     Br2213   1.919       .  S
C2202      H2205   1.076       .  S
C2204      C2206   1.399       .  A
C2204      C2210   1.408       .  A
C2206      C2207   1.402       .  A
C2206      H2211   1.083       .  S
C2207      C2208   1.416       .  A
C2207     Br2215   1.919       .  S
C2208      C2209   1.408       .  A
C2209      C2210   1.403       .  A
C2209      H2212   1.083       .  S
C2210     Br2216   1.919       .  S
C2217      C2218   1.414       .  A
C2217      C2222   1.404       .  A
C2218      C2219   1.402       .  A
C2218     Br2234   1.921   1_565  S
C2219      C2220   1.402       .  A
C2219      H2223   1.083       .  S
C2220      C2224   1.471       .  S
C2220      C2221   1.404       .  A
C2221      C2222   1.392       .  A
C2221     Br2233   1.920       .  S
C2222      H2225   1.082       .  S
C2224      C2226   1.397       .  A
C2224      C2230   1.396       .  A
C2226      C2227   1.405       .  A
C2226      H2231   1.084       .  S
C2227      C2228   1.435       .  A
C2227     Br2235   1.926       .  S
C2228      C2229   1.419       .  A
C2229      C2230   1.388       .  A
C2229      H2232   1.079       .  S
C2230     Br2236   1.922       .  S
C2237      C2238   1.437       .  A
C2237      C2242   1.420       .  A
C2238      C2239   1.397       .  A
C2238     Br2254   1.926       .  S
C2239      C2240   1.392       .  A
C2239      H2243   1.084       .  S
C2240      C2244   1.474       .  S
C2240      C2241   1.399       .  A
C2241      C2242   1.399       .  A
C2241     Br2253   1.919       .  S
C2242      H2245   1.076       .  S
C2244      C2246   1.398       .  A
C2244      C2250   1.405       .  A
C2246      C2247   1.398       .  A
C2246      H2251   1.084       .  S
C2247      C2248   1.419       .  A
C2247     Br2255   1.924       .  S
C2248      C2249   1.408       .  A
C2249      C2250   1.399       .  A
C2249      H2252   1.083       .  S
C2250     Br2256   1.919       .  S
C2257      C2258   1.412       .  A
C2257      C2262   1.402       .  A
C2258      C2259   1.405       .  A
C2258     Br2274   1.917       .  S
C2259      C2260   1.403       .  A
C2259      H2263   1.083       .  S
C2260      C2264   1.493       .  S
C2260      C2261   1.414       .  A
C2261      C2262   1.405       .  A
C2261     Br2273   1.918       .  S
C2262      H2265   1.083       .  S
C2264      C2266   1.404       .  A
C2264      C2270   1.401       .  A
C2266      C2267   1.413       .  A
C2266      H2271   1.083       .  S
C2267      C2268   1.432       .  A
C2267     Br2275   1.922       .  S
C2268      C2269   1.424       .  A
C2269      C2270   1.395       .  A
C2269      H2272   1.079       .  S
C2270     Br2276   1.920       .  S
C2277      C2278   1.415       .  A
C2277      C2282   1.411       .  A
C2278      C2279   1.400       .  A
C2278     Br2294   1.919       .  S
C2279      C2280   1.401       .  A
C2279      H2283   1.084       .  S
C2280      C2284   1.480       .  S
C2280      C2281   1.406       .  A
C2281      C2282   1.399       .  A
C2281     Br2293   1.920       .  S
C2282      H2285   1.083       .  S
C2284      C2286   1.398       .  A
C2284      C2290   1.400       .  A
C2286      C2287   1.403       .  A
C2286      H2291   1.084       .  S
C2287      C2288   1.433       .  A
C2287     Br2295   1.925       .  S
C2288      C2289   1.421       .  A
C2289      C2290   1.396       .  A
C2289      H2292   1.081       .  S
C2290     Br2296   1.919       .  S
C2297      C2298   1.431       .  A
C2297      C2302   1.418       .  A
C2298      C2299   1.399       .  A
C2298     Br2314   1.915       .  S
C2299      C2300   1.394       .  A
C2299      H2303   1.084       .  S
C2300      C2304   1.465       .  S
C2300      C2301   1.397       .  A
C2301      C2302   1.389       .  A
C2301     Br2313   1.919       .  S
C2302      H2305   1.079       .  S
C2304      C2306   1.404       .  A
C2304      C2310   1.399       .  A
C2306      C2307   1.398       .  A
C2306      H2311   1.084       .  S
C2307      C2308   1.409       .  A
C2307     Br2315   1.919       .  S
C2308      C2309   1.411       .  A
C2309      C2310   1.392       .  A
C2309      H2312   1.084       .  S
C2310     Br2316   1.919       .  S
C2317      C2318   1.428       .  A
C2317      C2322   1.409       .  A
C2318      C2319   1.406       .  A
C2318     Br2334   1.926       .  S
C2319      C2320   1.400       .  A
C2319      H2323   1.084       .  S
C2320      C2324   1.486       .  S
C2320      C2321   1.407       .  A
C2321      C2322   1.399       .  A
C2321     Br2333   1.920       .  S
C2322      H2325   1.083       .  S
C2324      C2326   1.392       .  A
C2324      C2330   1.403       .  A
C2326      C2327   1.397       .  A
C2326      H2331   1.084       .  S
C2327      C2328   1.434       .  A
C2327     Br2335   1.915       .  S
C2328      C2329   1.425       .  A
C2329      C2330   1.405       .  A
C2329      H2332   1.078       .  S
C2330     Br2336   1.918       .  S
C2337      C2338   1.411       .  A
C2337      C2342   1.410       .  A
C2338      C2339   1.398       .  A
C2338     Br2354   1.917       .  S
C2339      C2340   1.402       .  A
C2339      H2343   1.084       .  S
C2340      C2344   1.480       .  S
C2340      C2341   1.406       .  A
C2341      C2342   1.403       .  A
C2341     Br2353   1.919       .  S
C2342      H2345   1.084       .  S
C2344      C2346   1.394       .  A
C2344      C2350   1.401       .  A
C2346      C2347   1.400       .  A
C2346      H2351   1.084       .  S
C2347      C2348   1.435       .  A
C2347     Br2355   1.925       .  S
C2348      C2349   1.419       .  A
C2349      C2350   1.399       .  A
C2349      H2352   1.076       .  S
C2350     Br2356   1.919       .  S
C2357      C2358   1.421       .  A
C2357      C2362   1.410       .  A
C2358      C2359   1.403       .  A
C2358     Br2374   1.923       .  S
C2359      C2360   1.402       .  A
C2359      H2363   1.083       .  S
C2360      C2364   1.480       .  S
C2360      C2361   1.404       .  A
C2361      C2362   1.392       .  A
C2361     Br2373   1.921       .  S
C2362      H2365   1.083       .  S
C2364      C2366   1.394       .  A
C2364      C2370   1.399       .  A
C2366      C2367   1.398       .  A
C2366      H2371   1.085       .  S
C2367      C2368   1.442       .  A
C2367     Br2375   1.931       .  S
C2368      C2369   1.424       .  A
C2369      C2370   1.397       .  A
C2369      H2372   1.082       .  S
C2370     Br2376   1.918       .  S
