geometry optimzed in LAMMPS
_audit_creation_date              2020-11-30 
_audit_creation_method            'lammps2cif' 
_symmetry_space_group_name_H-M    'P1' 
_symmetry_Int_Tables_number       1 
_symmetry_cell_setting            triclinic 
loop_ 
_symmetry_equiv_pos_as_xyz 
  x,y,z 
_cell_length_a                    44.67370395 
_cell_length_b                    45.278200008127506 
_cell_length_c                    43.81059742556488 
_cell_angle_alpha                 90.01933055146894 
_cell_angle_beta                  90.08137081275189 
_cell_angle_gamma                 90.0288706295782 
loop_ 
_atom_site_label 
_atom_site_type_symbol 
_atom_site_fract_x 
_atom_site_fract_y 
_atom_site_fract_z 
_atom_site_charge 
In1        In  0.59824502  0.89455405  0.50365395     1.36900
C2          C  0.62611603  0.88725592  0.45123196     0.77300
O3          O  0.57535432  0.93845667  0.49701363    -0.61200
O4          O  0.61995703  0.93744613  0.01012737    -0.52100
C5          C  0.54549619  0.86541438  0.00401488     0.69900
O6          O  0.56741237  0.85866627  0.48604194    -0.46900
C7          C  0.62691165  0.88280084  0.05356966     0.74600
O8          O  0.60201823  0.90166649  0.45324130    -0.58800
O9          O  0.60112245  0.89391453  0.05364497    -0.48900
O10         O  0.63432510  0.87429027  0.47536367    -0.55200
C11         C  0.59825041  0.95356022  0.50328330     0.84800
O12         O  0.55244630  0.88547566  0.02250321    -0.57100
O13         O  0.63607831  0.87404166  0.02792428    -0.60400
In14       In  0.36948484  0.89652484  0.49530535     1.36900
C15         C  0.33623800  0.88797484  0.04703155     0.77300
O16         O  0.38885723  0.93940834  0.00710419    -0.61200
O17         O  0.34747392  0.93963337  0.48529919    -0.52100
C18         C  0.42184761  0.86804791  0.49565743     0.69900
O19         O  0.39875524  0.85821848  0.01277263    -0.46900
C20         C  0.34180259  0.88410335  0.44337107     0.74600
O21         O  0.36191198  0.89958430  0.04715254    -0.58800
O22         O  0.36472683  0.90024374  0.44444430    -0.48900
O23         O  0.32794723  0.87783949  0.02155339    -0.55200
C24         C  0.36664177  0.95404988  0.99777959     0.84800
O25         O  0.41631696  0.88989200  0.47893021    -0.57100
O26         O  0.33522616  0.87145652  0.46812489    -0.60400
In27       In  0.36341543  0.14217215  0.50056539     1.36900
C28         C  0.33268054  0.14980011  0.44916320     0.77300
O29         O  0.38892423  0.09990616  0.49366032    -0.61200
O30         O  0.34242073  0.09611633  0.00378112    -0.52100
C31         C  0.41685949  0.16834328  0.00040836     0.69900
O32         O  0.39769298  0.17467484  0.48160102    -0.46900
C33         C  0.33381051  0.15300118  0.05061407     0.74600
O34         O  0.35798528  0.13746314  0.44966421    -0.58800
O35         O  0.35743845  0.13790999  0.05028733    -0.48900
O36         O  0.32447086  0.16072578  0.47431402    -0.55200
C37         C  0.36686577  0.08327211  0.49808570     0.84800
O38         O  0.40736730  0.15274077  0.02202871    -0.57100
O39         O  0.32710018  0.16484693  0.02545097    -0.60400
In40       In  0.59808853  0.14045174  0.49874542     1.36900
C41         C  0.63046392  0.14977410  0.04774803     0.77300
O42         O  0.57467841  0.09641043  0.00628142    -0.61200
O43         O  0.61998753  0.09590618  0.49868700    -0.52100
C44         C  0.54451931  0.16721833  0.49871598     0.69900
O45         O  0.56352140  0.17132693  0.01653851    -0.46900
C46         C  0.62678537  0.15175419  0.44697785     0.74600
O47         O  0.60543755  0.13686202  0.04840873    -0.58800
O48         O  0.60546795  0.13368828  0.44868497    -0.48900
O49         O  0.63796734  0.15943489  0.02185268    -0.55200
C50         C  0.59694606  0.08060797  0.99997315     0.84800
O51         O  0.55466988  0.15329267  0.47620562    -0.57100
O52         O  0.63181013  0.16619771  0.47109681    -0.60400
In53       In  0.85974698  0.41020633  0.49514563     1.36900
C54         C  0.84870437  0.37481734  0.44808076     0.77300
O55         O  0.90374196  0.41581526  0.47061044    -0.61200
O56         O  0.90361264  0.41661511  0.02069575    -0.52100
C57         C  0.83208157  0.46090576  0.99442144     0.69900
O58         O  0.82161805  0.44113544  0.50733811    -0.46900
C59         C  0.84936366  0.37521281  0.04556462     0.74600
O60         O  0.83588477  0.39957186  0.45043675    -0.58800
O61         O  0.85692632  0.40197959  0.04736409    -0.48900
O62         O  0.86507853  0.36792333  0.47035275    -0.55200
C63         C  0.91940832  0.41873251  0.49422130     0.84800
O64         O  0.85441481  0.45447608  0.97832136    -0.57100
O65         O  0.84429743  0.36627384  0.01878588    -0.60400
In66       In  0.85510955  0.63819154  0.49911995     1.36900
C67         C  0.84558810  0.66817542  0.05156414     0.77300
O68         O  0.89910152  0.61277918  0.99170666    -0.61200
O69         O  0.90023393  0.65917332  0.50324445    -0.52100
C70         C  0.82674071  0.58623509  0.49776305     0.69900
O71         O  0.84647982  0.59292103  0.02096617    -0.46900
C72         C  0.84656000  0.66959931  0.44887989     0.74600
O73         O  0.85583057  0.64229014  0.05219132    -0.58800
O74         O  0.86218459  0.64640636  0.44926367    -0.48900
O75         O  0.83785451  0.67694020  0.02544984    -0.55200
C76         C  0.91574358  0.63421471  0.99835938     0.84800
O77         O  0.82160489  0.60615695  0.47841628    -0.57100
O78         O  0.83331089  0.67550018  0.47360630    -0.60400
In79       In  0.10431692  0.63850979  0.49998065     1.36900
C80         C  0.11383339  0.66671049  0.44792027     0.77300
O81         O  0.05983733  0.66077762  0.50487381    -0.61200
O82         O  0.06079600  0.61199247  0.99892726    -0.52100
C83         C  0.13427837  0.58446105  0.99788912     0.69900
O84         O  0.11301087  0.59445972  0.52139368    -0.46900
C85         C  0.11592122  0.66696047  0.04954209     0.74600
O86         O  0.09889246  0.64307263  0.44916436    -0.58800
O87         O  0.10088670  0.64344943  0.04928770    -0.48900
O88         O  0.12628466  0.67422353  0.47262384    -0.55200
C89         C  0.04444550  0.63860809  0.49793650     0.84800
O90         O  0.13259386  0.60119903  0.97509129    -0.57100
O91         O  0.12792744  0.67349511  0.02435836    -0.60400
In92       In  0.10781026  0.40877793  0.49883417     1.36900
C93         C  0.11863181  0.37747138  0.05052202     0.77300
O94         O  0.06349514  0.41673693  0.97687646    -0.61200
O95         O  0.06421630  0.41867110  0.52239418    -0.52100
C96         C  0.13512071  0.46114141  0.49609924     0.69900
O97         O  0.11007563  0.45395723  0.98295933    -0.46900
C98         C  0.11445918  0.37051981  0.45321460     0.74600
O99         O  0.11014451  0.40399332  0.05116897    -0.58800
O100        O  0.13140959  0.39281492  0.45575568    -0.48900
O101        O  0.12419330  0.36756162  0.02423093    -0.55200
C102        C  0.04839983  0.41860318  0.00098650     0.84800
O103        O  0.14508282  0.44040047  0.51243086    -0.57100
O104        O  0.09618984  0.36715410  0.47476421    -0.60400
In105      In  0.28267349  0.89460597  0.37250957     1.36900
C106        C  0.27511789  0.95194916  0.38443248     0.77300
O107        O  0.29420326  0.87925799  0.41967332    -0.61200
O108        O  0.32996956  0.89193726  0.39058324    -0.52100
C109        C  0.24151235  0.85220683  0.37692750     0.69900
O110        O  0.23639513  0.87877148  0.38418299    -0.46900
C111        C  0.28996161  0.89558240  0.31196216     0.74600
O112        O  0.25369214  0.93375205  0.38565654    -0.58800
O113        O  0.30696527  0.88083644  0.32926683    -0.48900
O114        O  0.29999227  0.94033891  0.37820884    -0.55200
C115        C  0.32183760  0.88394367  0.41688383     0.84800
O116        O  0.26801606  0.84754497  0.36821404    -0.57100
O117        O  0.26966211  0.90939111  0.32580271    -0.60400
In118      In  0.10337347  0.72323246  0.37525402     1.36900
C119        C  0.04570928  0.73082324  0.38845116     0.77300
O120        O  0.08784074  0.73446884  0.32814781    -0.61200
O121        O  0.11771125  0.69852926  0.33261305    -0.52100
C122        C  0.14643425  0.76397371  0.37896125     0.69900
O123        O  0.11942827  0.76915833  0.38555517    -0.46900
C124        C  0.11365371  0.68587462  0.42096389     0.74600
O125        O  0.06408913  0.75205736  0.38858275    -0.58800
O126        O  0.10630319  0.67705795  0.39466954    -0.48900
O127        O  0.05710355  0.70625417  0.38163015    -0.55200
C128        C  0.10256428  0.71460420  0.31478674     0.84800
O129        O  0.15128018  0.73761255  0.37084951    -0.57100
O130        O  0.11799401  0.71327262  0.42310032    -0.60400
In131      In  0.27868816  0.90030747  0.11923909     1.36900
C132        C  0.27325582  0.95787355  0.10808670     0.77300
O133        O  0.26697350  0.91506234  0.16637144    -0.61200
O134        O  0.30336998  0.88556244  0.16200740    -0.52100
C135        C  0.23657691  0.85866755  0.11533403     0.69900
O136        O  0.23182329  0.88530586  0.10822969    -0.46900
C137        C  0.31629805  0.88908587  0.07358010     0.74600
O138        O  0.25099057  0.94061500  0.10761227    -0.58800
O139        O  0.32533270  0.89495643  0.10021275    -0.48900
O140        O  0.29782148  0.94541231  0.11372978    -0.55200
C141        C  0.28714492  0.90064563  0.17976324     0.84800
O142        O  0.26309582  0.85358233  0.12389728    -0.57100
O143        O  0.28830646  0.88687403  0.07090231    -0.60400
In144      In  0.10425514  0.72395501  0.12161069     1.36900
C145        C  0.04592652  0.72930386  0.11043215     0.77300
O146        O  0.11778195  0.71438348  0.07319056    -0.61200
O147        O  0.11071853  0.67796942  0.10287606    -0.52100
C148        C  0.14681284  0.76514034  0.11793253     0.69900
O149        O  0.12039747  0.76933545  0.10845239    -0.46900
C150        C  0.10223600  0.71657154  0.18224337     0.74600
O151        O  0.06350095  0.75118547  0.11019846    -0.58800
O152        O  0.11721682  0.69961544  0.16511503    -0.48900
O153        O  0.05854064  0.70490644  0.11546118    -0.55200
C154        C  0.11596570  0.68676798  0.07606083     0.84800
O155        O  0.15113730  0.73966916  0.12876550    -0.57100
O156        O  0.08898474  0.73697462  0.16818540    -0.60400
In157      In  0.10425080  0.31641106  0.37820356     1.36900
C158        C  0.04454715  0.31647621  0.38065818     0.77300
O159        O  0.10004629  0.32634022  0.42783378    -0.61200
O160        O  0.12413367  0.35719554  0.40076525    -0.52100
C161        C  0.14350787  0.27222614  0.38487106     0.69900
O162        O  0.11558488  0.26855424  0.38676985    -0.46900
C163        C  0.10728684  0.32516646  0.31796102     0.74600
O164        O  0.06013683  0.29415850  0.38760788    -0.58800
O165        O  0.11748468  0.34387574  0.33676270    -0.48900
O166        O  0.05984981  0.33874280  0.37301528    -0.55200
C167        C  0.11371639  0.35065340  0.42671466     0.84800
O168        O  0.15108039  0.29872433  0.38042953    -0.57100
O169        O  0.09666058  0.30233677  0.33030539    -0.60400
In170      In  0.27542019  0.13816884  0.37610095     1.36900
C171        C  0.27262424  0.07985221  0.38421261     0.77300
O172        O  0.26273492  0.12547276  0.32861239    -0.61200
O173        O  0.29877524  0.15552778  0.33361992    -0.52100
C174        C  0.23415556  0.18000192  0.38270646     0.69900
O175        O  0.22860832  0.15304487  0.38800327    -0.46900
C176        C  0.31287025  0.14852093  0.42241576     0.74600
O177        O  0.24988056  0.09615335  0.38796166    -0.58800
O178        O  0.32208333  0.14409148  0.39555971    -0.48900
O179        O  0.29579757  0.09365082  0.37626277    -0.55200
C180        C  0.28259488  0.14062799  0.31557920     0.84800
O181        O  0.26059406  0.18488828  0.37404445    -0.57100
O182        O  0.28482781  0.14923737  0.42510580    -0.60400
In183      In  0.10753046  0.32250175  0.12411765     1.36900
C184        C  0.04914388  0.31739116  0.11363156     0.77300
O185        O  0.09355484  0.30817852  0.17010524    -0.61200
O186        O  0.12152176  0.34566352  0.16851383    -0.52100
C187        C  0.14911830  0.28091040  0.11874845     0.69900
O188        O  0.12151699  0.27589595  0.11511964    -0.46900
C189        C  0.11827255  0.35845670  0.07758601     0.74600
O190        O  0.06700719  0.29598829  0.11055869    -0.58800
O191        O  0.11480885  0.36809009  0.10445862    -0.48900
O192        O  0.06145784  0.34138596  0.12118551    -0.55200
C193        C  0.10685336  0.32786713  0.18506366     0.84800
O194        O  0.15521287  0.30753981  0.12469151    -0.57100
O195        O  0.11834621  0.33074978  0.07516331    -0.60400
In196      In  0.27660757  0.14263216  0.12312849     1.36900
C197        C  0.27046265  0.08505498  0.11243842     0.77300
O198        O  0.28589403  0.15486193  0.07435484    -0.61200
O199        O  0.32301002  0.14797733  0.10391410    -0.52100
C200        C  0.23533452  0.18474971  0.11847892     0.69900
O201        O  0.22981623  0.15795302  0.11267228    -0.46900
C202        C  0.28534600  0.14324748  0.18350016     0.74600
O203        O  0.24838494  0.10253390  0.11201434    -0.58800
O204        O  0.30061068  0.15912268  0.16562347    -0.48900
O205        O  0.29525936  0.09730189  0.11787295    -0.55200
C206        C  0.31390359  0.15310568  0.07714378     0.84800
O207        O  0.26204171  0.18959075  0.12648424    -0.57100
O208        O  0.26630644  0.12718665  0.17032275    -0.60400
In209      In  0.85929166  0.72802147  0.37874283     1.36900
C210        C  0.91725768  0.73112998  0.39260442     0.77300
O211        O  0.84419865  0.71733233  0.42623444    -0.61200
O212        O  0.85323534  0.68160517  0.39602916    -0.52100
C213        C  0.81737047  0.76938916  0.38355200     0.69900
O214        O  0.84448286  0.77388182  0.39042095    -0.46900
C215        C  0.86087202  0.72393615  0.31773131     0.74600
O216        O  0.90044377  0.75358725  0.39319145    -0.58800
O217        O  0.84666649  0.70563697  0.33406390    -0.48900
O218        O  0.90413994  0.70758433  0.38526376    -0.55200
C219        C  0.84691594  0.68982664  0.42281674     0.84800
O220        O  0.81177868  0.74324387  0.37511075    -0.57100
O221        O  0.87409215  0.74356602  0.33292801    -0.60400
In222      In  0.68148441  0.89999173  0.37788891     1.36900
C223        C  0.64506047  0.88858785  0.42411788     0.77300
O224        O  0.69666838  0.85319379  0.37370060    -0.61200
O225        O  0.72838671  0.88501880  0.38832091    -0.52100
C226        C  0.67313877  0.89903436  0.31751274     0.69900
O227        O  0.65742111  0.88362092  0.33541889    -0.46900
C228        C  0.68717265  0.95760553  0.38868321     0.74600
O229        O  0.63524445  0.89470622  0.39782390    -0.58800
O230        O  0.70939974  0.94030178  0.38889069    -0.48900
O231        O  0.67309105  0.88648845  0.42610805    -0.55200
C232        C  0.72324959  0.85823223  0.38192573     0.84800
O233        O  0.69219681  0.91499456  0.33081137    -0.57100
O234        O  0.66242657  0.94520172  0.38353506    -0.60400
In235      In  0.85867108  0.72502614  0.12355602     1.36900
C236        C  0.91694559  0.72809053  0.11197290     0.77300
O237        O  0.87227856  0.74124796  0.16974179    -0.61200
O238        O  0.84645266  0.70214562  0.16775357    -0.52100
C239        C  0.81560815  0.76513115  0.11863403     0.69900
O240        O  0.84226165  0.77008135  0.11032864    -0.46900
C241        C  0.84643676  0.68796530  0.07812364     0.74600
O242        O  0.90022059  0.75061880  0.11117803    -0.58800
O243        O  0.84985492  0.67906828  0.10527343    -0.48900
O244        O  0.90365729  0.70444865  0.11871382    -0.55200
C245        C  0.85944437  0.72099050  0.18450104     0.84800
O246        O  0.81129374  0.73944181  0.12887798    -0.57100
O247        O  0.84694041  0.71561376  0.07490064    -0.60400
In248      In  0.68324247  0.89804538  0.12503530     1.36900
C249        C  0.68707419  0.95589702  0.11351912     0.77300
O250        O  0.67445269  0.88433914  0.07715748    -0.61200
O251        O  0.63702667  0.88948308  0.10673132    -0.52100
C252        C  0.72523249  0.85716548  0.11965487     0.69900
O253        O  0.72920745  0.88372980  0.11187728    -0.46900
C254        C  0.67660713  0.89786220  0.18532365     0.74600
O255        O  0.70936514  0.93884682  0.11156864    -0.58800
O256        O  0.65814200  0.88500817  0.16791534    -0.48900
O257        O  0.66323689  0.94312298  0.12127747    -0.55200
C258        C  0.64645885  0.88439688  0.08009564     0.84800
O259        O  0.69941850  0.85170512  0.12997700    -0.57100
O260        O  0.69825995  0.90976514  0.17169198    -0.60400
In261      In  0.85463814  0.32138038  0.37281973     1.36900
C262        C  0.84723358  0.35567297  0.42118129     0.77300
O263        O  0.80734921  0.30507758  0.37340210    -0.61200
O264        O  0.84158318  0.27481850  0.38505414    -0.52100
C265        C  0.85306656  0.32785752  0.31230463     0.69900
O266        O  0.84162829  0.34695155  0.32992435    -0.46900
C267        C  0.91414927  0.32093255  0.37656737     0.74600
O268        O  0.83851024  0.36393375  0.39502444    -0.58800
O269        O  0.89836286  0.29819536  0.38147211    -0.48900
O270        O  0.85750212  0.32983197  0.42236726    -0.55200
C271        C  0.81393512  0.27897775  0.38103308     0.84800
O272        O  0.86392853  0.30580934  0.32591559    -0.57100
O273        O  0.89911894  0.34364662  0.36999935    -0.60400
In274      In  0.68403294  0.14256481  0.37462896     1.36900
C275        C  0.68985869  0.08483063  0.38480620     0.77300
O276        O  0.67447267  0.15443604  0.42324120    -0.61200
O277        O  0.63739014  0.14783543  0.39344866    -0.52100
C278        C  0.72334615  0.18649073  0.38071198     0.69900
O279        O  0.72925648  0.16026766  0.38871770    -0.46900
C280        C  0.67770156  0.14183444  0.31385864     0.74600
O281        O  0.71205065  0.10217411  0.38467878    -0.58800
O282        O  0.65888464  0.15447620  0.33102753    -0.48900
O283        O  0.66501496  0.09722804  0.38029772    -0.55200
C284        C  0.64648772  0.15254918  0.42034483     0.84800
O285        O  0.69719462  0.18979627  0.37033147    -0.57100
O286        O  0.69946179  0.13052049  0.32788368    -0.60400
In287      In  0.86098917  0.31929962  0.11900781     1.36900
C288        C  0.91988484  0.31649963  0.11021933     0.77300
O289        O  0.85145039  0.32765000  0.06927403    -0.61200
O290        O  0.85165992  0.36449771  0.09929904    -0.52100
C291        C  0.81999395  0.27662157  0.11565349     0.69900
O292        O  0.84723359  0.27255223  0.10924096    -0.46900
C293        C  0.86054623  0.32668422  0.17969647     0.74600
O294        O  0.90338704  0.29387004  0.10816272    -0.58800
O295        O  0.84641818  0.34386405  0.16201331    -0.48900
O296        O  0.90598545  0.33991563  0.11639627    -0.55200
C297        C  0.84985727  0.35531735  0.07212267     0.84800
O298        O  0.81380393  0.30291828  0.12296291    -0.57100
O299        O  0.87453700  0.30661041  0.16596798    -0.60400
In300      In  0.68794485  0.14143564  0.12087887     1.36900
C301        C  0.65055235  0.15057876  0.07433515     0.77300
O302        O  0.70210804  0.18836486  0.12752341    -0.61200
O303        O  0.73389494  0.15867612  0.10908300    -0.52100
C304        C  0.67924455  0.14181066  0.18131436     0.69900
O305        O  0.66285286  0.15623965  0.16309474    -0.46900
C306        C  0.69277536  0.08346891  0.11127246     0.74600
O307        O  0.64149501  0.14692406  0.10135132    -0.58800
O308        O  0.71533482  0.10039300  0.11019445    -0.48900
O309        O  0.67859263  0.15211854  0.07157561    -0.55200
C310        C  0.72845031  0.18475291  0.11793214     0.84800
O311        O  0.69961555  0.12716676  0.16837804    -0.57100
O312        O  0.66854378  0.09653270  0.11703877    -0.60400
C313        C  0.76924828  0.25847023  0.12928031    -0.20600
C314        C  0.79698558  0.25272724  0.11543136    -0.07200
C315        C  0.80184522  0.22455568  0.10218819     0.13700
C316        C  0.77899851  0.20319080  0.10329331    -0.20700
C317        C  0.75127350  0.20888484  0.11722930    -0.07200
C318        C  0.74641039  0.23714416  0.13041959     0.13700
C319        C  0.71747738  0.24525925  0.14603465    -0.24000
H320        H  0.76538651  0.27992601  0.13962895     0.15000
H321        H  0.78293073  0.18167888  0.09308035     0.15000
C322        C  0.83077180  0.21671866  0.08647489    -0.24000
H323        H  0.71798600  0.26811849  0.15526139     0.05200
H324        H  0.71333314  0.23010455  0.16549162     0.08400
H325        H  0.69866333  0.24405146  0.12950700     0.08400
H326        H  0.84952671  0.21732241  0.10310239     0.08400
H327        H  0.83510194  0.23246430  0.06756542     0.08400
H328        H  0.83010959  0.19414996  0.07653656     0.05200
C329        C  0.66342012  0.16478456  0.26399321    -0.20600
C330        C  0.67514851  0.14051832  0.28000285    -0.07200
C331        C  0.68535106  0.11571833  0.26328145     0.13700
C332        C  0.68589696  0.11683884  0.23125478    -0.20700
C333        C  0.67553211  0.14162161  0.21513763    -0.07200
C334        C  0.66327308  0.16558681  0.23178368     0.13700
C335        C  0.65089603  0.19244538  0.21591206    -0.24000
H336        H  0.65511173  0.18357675  0.27674995     0.15000
H337        H  0.69449404  0.09806639  0.21865526     0.15000
C338        C  0.69478032  0.08753201  0.27893479    -0.24000
H339        H  0.64300778  0.20932072  0.23244753     0.05200
H340        H  0.63150676  0.18604075  0.20147320     0.08400
H341        H  0.66848240  0.20271058  0.20150770     0.08400
H342        H  0.67656311  0.07971429  0.29417939     0.08400
H343        H  0.71546119  0.09122319  0.29239053     0.08400
H344        H  0.69957418  0.06966006  0.26227338     0.05200
C345        C  0.87775224  0.31406327  0.26409297    -0.20600
C346        C  0.85513777  0.33043222  0.27845827    -0.07200
C347        C  0.83534052  0.34726796  0.26017732     0.13700
C348        C  0.83824489  0.34645447  0.22807542    -0.20700
C349        C  0.86019708  0.32898336  0.21371685    -0.07200
C350        C  0.88058463  0.31295146  0.23228579     0.13700
C351        C  0.90557437  0.29441962  0.21919777    -0.24000
H352        H  0.89335569  0.30155398  0.27798712     0.15000
H353        H  0.82265851  0.35884280  0.21410560     0.15000
C354        C  0.81048073  0.36514964  0.27414752    -0.24000
H355        H  0.92015103  0.28497893  0.23729732     0.05200
H356        H  0.91993719  0.30817096  0.20419290     0.08400
H357        H  0.89618177  0.27553156  0.20617826     0.08400
H358        H  0.82002013  0.38262468  0.28903087     0.08400
H359        H  0.79569311  0.35054017  0.28781117     0.08400
H360        H  0.79652603  0.37610617  0.25646649     0.05200
C361        C  0.76264460  0.26091429  0.37071391    -0.20600
C362        C  0.79085016  0.25532510  0.38356838    -0.07200
C363        C  0.79617826  0.22738161  0.39715623     0.13700
C364        C  0.77338963  0.20584946  0.39675166    -0.20700
C365        C  0.74554553  0.21110488  0.38269043    -0.07200
C366        C  0.74014839  0.23933345  0.36971537     0.13700
C367        C  0.71119357  0.24701568  0.35383610    -0.24000
H368        H  0.75836239  0.28226735  0.36030593     0.15000
H369        H  0.77767048  0.18439733  0.40698706     0.15000
C370        C  0.82566075  0.21990550  0.41204265    -0.24000
H371        H  0.71129001  0.26994760  0.34482546     0.05200
H372        H  0.69225764  0.24528490  0.37010627     0.08400
H373        H  0.70758374  0.23200066  0.33412543     0.08400
H374        H  0.83068986  0.23610905  0.43037388     0.08400
H375        H  0.84380728  0.22012558  0.39476979     0.08400
H376        H  0.82534587  0.19755929  0.42251035     0.05200
C377        C  0.71687080  0.00239235  0.11169498    -0.20600
C378        C  0.68895609  0.98833572  0.10844498    -0.07200
C379        C  0.66336210  0.00579155  0.10213481     0.13700
C380        C  0.66618023  0.03660902  0.10103248    -0.20700
C381        C  0.69353403  0.05084078  0.10703481    -0.07200
C382        C  0.71946926  0.03340498  0.11150866     0.13700
C383        C  0.74961404  0.04711755  0.11760201    -0.24000
H384        H  0.73658442  0.98909965  0.11608612     0.15000
H385        H  0.64636399  0.04980255  0.09681103     0.15000
C386        C  0.63271067  0.99249145  0.09734541    -0.24000
H387        H  0.76723737  0.03012857  0.12101403     0.05200
H388        H  0.74860717  0.06082397  0.13859580     0.08400
H389        H  0.75634063  0.06102090  0.09791078     0.08400
H390        H  0.62454485  0.98265886  0.11897722     0.08400
H391        H  0.63350702  0.97523656  0.07941359     0.08400
H392        H  0.61605614  0.00931287  0.09009693     0.05200
C393        C  0.80023975  0.81742896  0.11190596    -0.20600
C394        C  0.79173526  0.78798720  0.11718248    -0.07200
C395        C  0.76100056  0.78142344  0.12158792     0.13700
C396        C  0.74003981  0.80448526  0.12159240    -0.20700
C397        C  0.74867099  0.83402184  0.11729276    -0.07200
C398        C  0.77924187  0.84050297  0.11187856     0.13700
C399        C  0.79028655  0.87157917  0.10668318    -0.24000
H400        H  0.82364246  0.82258181  0.10834207     0.15000
H401        H  0.71665210  0.79933678  0.12528311     0.15000
C402        C  0.74976361  0.75031200  0.12612989    -0.24000
H403        H  0.81491363  0.87238024  0.10339203     0.05200
H404        H  0.78487767  0.88557481  0.12674734     0.08400
H405        H  0.77976230  0.88087690  0.08582130     0.08400
H406        H  0.75882318  0.74110038  0.14771650     0.08400
H407        H  0.75659192  0.73629984  0.10653257     0.08400
H408        H  0.72496643  0.74940621  0.12768680     0.05200
C409        C  0.71394554  0.00443307  0.37789387    -0.20600
C410        C  0.68984935  0.99005885  0.39208955    -0.07200
C411        C  0.66752629  0.00714102  0.40668449     0.13700
C412        C  0.66895657  0.03808713  0.40503631    -0.20700
C413        C  0.69212168  0.05246100  0.38928138    -0.07200
C414        C  0.71523110  0.03541900  0.37603221     0.13700
C415        C  0.74025721  0.04960699  0.35828218    -0.24000
H416        H  0.73101982  0.99131880  0.36672073     0.15000
H417        H  0.65145910  0.05117864  0.41555620     0.15000
C418        C  0.64226491  0.99296639  0.42419976    -0.24000
H419        H  0.75564100  0.03291473  0.34836618     0.05200
H420        H  0.75361001  0.06410341  0.37352625     0.08400
H421        H  0.73085946  0.06285749  0.33923171     0.08400
H422        H  0.65147506  0.97754251  0.44150164     0.08400
H423        H  0.62730658  0.98069632  0.40845455     0.08400
H424        H  0.62841216  0.00963713  0.43629459     0.05200
C425        C  0.65991489  0.87551438  0.23456528    -0.20600
C426        C  0.67347338  0.89911882  0.21899441    -0.07200
C427        C  0.68431584  0.92351200  0.23592862     0.13700
C428        C  0.68272022  0.92296484  0.26783280    -0.20700
C429        C  0.67053491  0.89883373  0.28364727    -0.07200
C430        C  0.65834663  0.87499892  0.26671259     0.13700
C431        C  0.64455548  0.84861366  0.28220543    -0.24000
H432        H  0.65129331  0.85698577  0.22155896     0.15000
H433        H  0.69153438  0.94156725  0.28061065     0.15000
C434        C  0.69713161  0.95060504  0.22067299    -0.24000
H435        H  0.63674736  0.83187444  0.26544689     0.05200
H436        H  0.62489057  0.85567485  0.29583720     0.08400
H437        H  0.66129424  0.83789973  0.29733494     0.08400
H438        H  0.68083576  0.95950548  0.20385741     0.08400
H439        H  0.71846234  0.94508287  0.20906772     0.08400
H440        H  0.70209371  0.96840077  0.23738202     0.05200
C441        C  0.87881603  0.74017911  0.23389250    -0.20600
C442        C  0.85987213  0.72023719  0.21861894    -0.07200
C443        C  0.84170154  0.70110826  0.23628238     0.13700
C444        C  0.84282948  0.70269669  0.26839255    -0.20700
C445        C  0.86156833  0.72285925  0.28363005    -0.07200
C446        C  0.88005510  0.74175747  0.26589682     0.13700
C447        C  0.90144513  0.76363368  0.28012983    -0.24000
H448        H  0.89291893  0.75484135  0.22063212     0.15000
H449        H  0.82864644  0.68820006  0.28170156     0.15000
C450        C  0.82066703  0.67923435  0.22170306    -0.24000
H451        H  0.91465370  0.77573182  0.26267816     0.05200
H452        H  0.91756953  0.75190648  0.29515255     0.08400
H453        H  0.88883518  0.78036283  0.29343678     0.08400
H454        H  0.83355238  0.66318340  0.20779028     0.08400
H455        H  0.80423773  0.69102396  0.20708642     0.08400
H456        H  0.80789638  0.66649064  0.23898973     0.05200
C457        C  0.77674927  0.84376503  0.38658034    -0.20600
C458        C  0.74675002  0.83492604  0.38349916    -0.07200
C459        C  0.74018427  0.80430573  0.38173347     0.13700
C460        C  0.76373192  0.78376461  0.38224517    -0.20700
C461        C  0.79377710  0.79262531  0.38475914    -0.07200
C462        C  0.80029277  0.82319256  0.38728571     0.13700
C463        C  0.83188278  0.83460227  0.39016083    -0.24000
H464        H  0.78195781  0.86716070  0.38806929     0.15000
H465        H  0.75852301  0.76039530  0.38059712     0.15000
C466        C  0.70855379  0.79278444  0.37969595    -0.24000
H467        H  0.83264028  0.85910604  0.39129430     0.05200
H468        H  0.84523948  0.82765324  0.37005552     0.08400
H469        H  0.84225505  0.82603736  0.41142285     0.08400
H470        H  0.69797504  0.80023720  0.35810278     0.08400
H471        H  0.69537639  0.80072483  0.39954256     0.08400
H472        H  0.70777968  0.76825838  0.37987032     0.05200
C473        C  0.00087262  0.34033297  0.09968628    -0.20600
C474        C  0.01630772  0.31506352  0.10939337    -0.07200
C475        C  0.99989484  0.28930376  0.11684120     0.13700
C476        C  0.96841516  0.28993486  0.11540372    -0.20700
C477        C  0.95295884  0.31576587  0.10717405    -0.07200
C478        C  0.96952601  0.34103435  0.09830525     0.13700
C479        C  0.95454153  0.36883010  0.08700966    -0.24000
H480        H  0.01346541  0.35991274  0.09356797     0.15000
H481        H  0.95579812  0.27056900  0.12209773     0.15000
C482        C  0.01521458  0.26165520  0.12792968    -0.24000
H483        H  0.97111298  0.38520403  0.07873262     0.05200
H484        H  0.94182159  0.37950399  0.10572089     0.08400
H485        H  0.93929531  0.36353368  0.06771751     0.08400
H486        H  0.02867665  0.26665078  0.14864338     0.08400
H487        H  0.03000139  0.25278776  0.10977534     0.08400
H488        H  0.99886555  0.24412085  0.13393377     0.05200
C489        C  0.16227959  0.22822541  0.11021483    -0.20600
C490        C  0.17202231  0.25708938  0.11678115    -0.07200
C491        C  0.20287591  0.26197740  0.12245536     0.13700
C492        C  0.22271410  0.23796365  0.12194076    -0.20700
C493        C  0.21282707  0.20894853  0.11649715    -0.07200
C494        C  0.18206879  0.20410409  0.11030178     0.13700
C495        C  0.16952374  0.17369515  0.10449034    -0.24000
H496        H  0.13877664  0.22429300  0.10569589     0.15000
H497        H  0.24620069  0.24193026  0.12648765     0.15000
C498        C  0.21533749  0.29214841  0.12971619    -0.24000
H499        H  0.14499397  0.17421692  0.10033973     0.05200
H500        H  0.17351942  0.15938184  0.12466334     0.08400
H501        H  0.18020124  0.16391084  0.08398813     0.08400
H502        H  0.20503047  0.30073524  0.15098840     0.08400
H503        H  0.21088699  0.30748281  0.11047415     0.08400
H504        H  0.23993378  0.29161325  0.13340258     0.05200
C505        C  0.29312249  0.16723929  0.26677037    -0.16600
C506        C  0.28623266  0.14070436  0.28186626    -0.07200
C507        C  0.28197123  0.11471824  0.26438469     0.13700
C508        C  0.28324623  0.11624899  0.23243824    -0.20700
C509        C  0.28865717  0.14297317  0.21722660    -0.07200
C510        C  0.29423592  0.16874401  0.23462453     0.13700
C511        C  0.29988906  0.19807285  0.21947599    -0.24000
H512        H  0.29654096  0.18711084  0.28014410     0.15000
H513        H  0.27937795  0.09638672  0.21911517     0.15000
C514        C  0.27645817  0.08511538  0.27916577    -0.24000
H515        H  0.30262911  0.21608868  0.23646145     0.05200
H516        H  0.28073537  0.20383977  0.20442475     0.08400
H517        H  0.32070391  0.19691915  0.20572769     0.08400
H518        H  0.25456610  0.08512386  0.29106989     0.08400
H519        H  0.29463490  0.08018641  0.29571330     0.08400
H520        H  0.27589314  0.06696519  0.26210234     0.05200
C521        C  0.99673096  0.34290229  0.37089102    -0.20600
C522        C  0.01111127  0.31699083  0.38077876    -0.07200
C523        C  0.99323610  0.29268284  0.38997592     0.13700
C524        C  0.96185120  0.29487525  0.38843890    -0.20700
C525        C  0.94751562  0.32068485  0.37822329    -0.07200
C526        C  0.96539908  0.34520459  0.36959465     0.13700
C527        C  0.95201546  0.37392148  0.35868536    -0.24000
H528        H  0.01014268  0.36166726  0.36391228     0.15000
H529        H  0.94837434  0.27611063  0.39531810     0.15000
C530        C  0.00675146  0.26431926  0.40156129    -0.24000
H531        H  0.96947335  0.39047175  0.35292102     0.05200
H532        H  0.93782250  0.38365323  0.37686151     0.08400
H533        H  0.93846889  0.37005930  0.33779827     0.08400
H534        H  0.02065380  0.26883967  0.42206694     0.08400
H535        H  0.02063663  0.25403240  0.38346354     0.08400
H536        H  0.98934206  0.24802283  0.40819272     0.05200
C537        C  0.08619346  0.31138891  0.26789453    -0.20600
C538        C  0.10664674  0.32888443  0.28414180    -0.07200
C539        C  0.12577145  0.34804646  0.26765175     0.13700
C540        C  0.12496334  0.34785601  0.23538364    -0.20700
C541        C  0.10538232  0.32915213  0.21914774    -0.07200
C542        C  0.08507940  0.31127841  0.23595782     0.13700
C543        C  0.06186076  0.29184032  0.22087004    -0.24000
H544        H  0.07089460  0.29727584  0.28038311     0.15000
H545        H  0.14017636  0.36193221  0.22280265     0.15000
C546        C  0.14757740  0.36808971  0.28374290    -0.24000
H547        H  0.04699290  0.28096840  0.23778263     0.05200
H548        H  0.07292970  0.27396879  0.20773154     0.08400
H549        H  0.04741643  0.30529866  0.20562051     0.08400
H550        H  0.16312105  0.35478738  0.29796809     0.08400
H551        H  0.13522895  0.38392475  0.29841664     0.08400
H552        H  0.16117734  0.38109587  0.26734585     0.05200
C553        C  0.18098536  0.19602897  0.38737620    -0.20600
C554        C  0.21137090  0.20386060  0.38567668    -0.07200
C555        C  0.21911891  0.23426198  0.38573357     0.13700
C556        C  0.19639460  0.25561745  0.38667350    -0.20700
C557        C  0.16594877  0.24787654  0.38686704    -0.07200
C558        C  0.15817906  0.21747787  0.38743942     0.13700
C559        C  0.12607958  0.20722687  0.38701868    -0.24000
H560        H  0.17489565  0.17276892  0.38746260     0.15000
H561        H  0.20260975  0.27881105  0.38647327     0.15000
C562        C  0.25117694  0.24474311  0.38465664    -0.24000
H563        H  0.12433845  0.18274421  0.38720599     0.05200
H564        H  0.11483057  0.21524030  0.36597729     0.08400
H565        H  0.11419047  0.21562100  0.40747452     0.08400
H566        H  0.26157451  0.23827316  0.36265353     0.08400
H567        H  0.26397407  0.23517997  0.40401302     0.08400
H568        H  0.25286230  0.26916607  0.38638417     0.05200
C569        C  0.99765868  0.70644468  0.09563548    -0.20600
C570        C  0.01302802  0.73145606  0.10639453    -0.07200
C571        C  0.99642922  0.75645242  0.11583110     0.13700
C572        C  0.96500248  0.75518179  0.11569383    -0.20700
C573        C  0.94972487  0.72941132  0.10703875    -0.07200
C574        C  0.96627321  0.70501433  0.09587596     0.13700
C575        C  0.95120391  0.67742211  0.08408244    -0.24000
H576        H  0.01033161  0.68749404  0.08784112     0.15000
H577        H  0.95232892  0.77391368  0.12397564     0.15000
C578        C  0.01150017  0.78390269  0.12779766    -0.24000
H579        H  0.96758773  0.66169736  0.07412035     0.05200
H580        H  0.93485717  0.68326225  0.06594425     0.08400
H581        H  0.93959060  0.66579136  0.10294222     0.08400
H582        H  0.02561132  0.79383989  0.10967406     0.08400
H583        H  0.02556356  0.77831496  0.14791019     0.08400
H584        H  0.99500166  0.80083282  0.13506631     0.05200
C585        C  0.24509612  0.00463559  0.11535451    -0.20600
C586        C  0.27081707  0.99032186  0.10439495    -0.07200
C587        C  0.29458184  0.00750092  0.09249590     0.13700
C588        C  0.29316799  0.03837377  0.09462144    -0.20700
C589        C  0.26830650  0.05271194  0.10740552    -0.07200
C590        C  0.24342384  0.03564404  0.11682880     0.13700
C591        C  0.21563075  0.04977461  0.12964720    -0.24000
H592        H  0.22669563  0.99148120  0.12403183     0.15000
H593        H  0.31186522  0.05146874  0.08649846     0.15000
C594        C  0.32121800  0.99363075  0.07690810    -0.24000
H595        H  0.19876655  0.03303375  0.13656607     0.05200
H596        H  0.20516673  0.06413622  0.11209404     0.08400
H597        H  0.22141277  0.06313433  0.15007405     0.08400
H598        H  0.31346469  0.97891479  0.05820655     0.08400
H599        H  0.33472820  0.98080240  0.09348209     0.08400
H600        H  0.33619744  0.01054397  0.06669016     0.05200
C601        C  0.16375299  0.81545112  0.10234638    -0.20600
C602        C  0.17050059  0.78840665  0.11660320    -0.07200
C603        C  0.19941490  0.78455129  0.12944325     0.13700
C604        C  0.22013114  0.80786012  0.12834361    -0.20700
C605        C  0.21325688  0.83505200  0.11458442    -0.07200
C606        C  0.18467891  0.83868867  0.10097380     0.13700
C607        C  0.17599751  0.86666175  0.08455269    -0.24000
H608        H  0.14187916  0.81851425  0.09215280     0.15000
H609        H  0.24195342  0.80478723  0.13863527     0.15000
C610        C  0.20896887  0.75613199  0.14454313    -0.24000
H611        H  0.15328460  0.86508249  0.07433429     0.05200
H612        H  0.19205212  0.87106893  0.06576152     0.08400
H613        H  0.17583913  0.88549507  0.10076451     0.08400
H614        H  0.20786948  0.73770668  0.12784538     0.08400
H615        H  0.19431275  0.75138471  0.16438718     0.08400
H616        H  0.23234598  0.75724718  0.15312634     0.05200
C617        C  0.96525679  0.75876352  0.39118754    -0.20600
C618        C  0.95003071  0.73239318  0.39784090    -0.07200
C619        C  0.96675961  0.70720737  0.40660153     0.13700
C620        C  0.99805942  0.70807798  0.40469176    -0.20700
C621        C  0.01324978  0.73358289  0.39505356    -0.07200
C622        C  0.99670705  0.75976549  0.38988063     0.13700
C623        C  0.01175342  0.78845222  0.38168200    -0.24000
H624        H  0.95250213  0.77829747  0.38539799     0.15000
H625        H  0.01075244  0.68837247  0.41008290     0.15000
C626        C  0.95204388  0.67942281  0.41834020    -0.24000
H627        H  0.99527594  0.80652103  0.37826172     0.05200
H628        H  0.02458508  0.78582942  0.36017874     0.08400
H629        H  0.02706633  0.79524208  0.40040013     0.08400
H630        H  0.93914780  0.66843529  0.39992927     0.08400
H631        H  0.93695127  0.68491710  0.43764974     0.08400
H632        H  0.96879504  0.66322431  0.42680173     0.05200
C633        C  0.07715639  0.72312896  0.26524140    -0.20600
C634        C  0.10188083  0.71141652  0.28093340    -0.07200
C635        C  0.12570554  0.69910934  0.26383779     0.13700
C636        C  0.12479824  0.70030152  0.23167834    -0.20700
C637        C  0.10073804  0.71347257  0.21608131    -0.07200
C638        C  0.07615906  0.72427031  0.23323002     0.13700
C639        C  0.04851230  0.73674604  0.21816172    -0.24000
H640        H  0.05853451  0.73198683  0.27819677     0.15000
H641        H  0.14347046  0.69173075  0.21866670     0.15000
C642        C  0.15263696  0.68566964  0.27918556    -0.24000
H643        H  0.03074124  0.74190133  0.23505523     0.05200
H644        H  0.03920312  0.72045425  0.20173388     0.08400
H645        H  0.05398888  0.75760961  0.20613613     0.08400
H646        H  0.14564638  0.66636831  0.29308360     0.08400
H647        H  0.16366752  0.70232298  0.29403612     0.08400
H648        H  0.16940881  0.67784847  0.26234054     0.05200
C649        C  0.29863617  0.00036739  0.39422078    -0.20600
C650        C  0.27223762  0.98444902  0.38868174    -0.07200
C651        C  0.24508845  0.00019442  0.38473552     0.13700
C652        C  0.24558661  0.03137015  0.38456286    -0.20700
C653        C  0.27250717  0.04716979  0.38804101    -0.07200
C654        C  0.29924418  0.03127749  0.39394031     0.13700
C655        C  0.32873897  0.04646066  0.40012597    -0.24000
H656        H  0.31936997  0.98845888  0.39802938     0.15000
H657        H  0.22500906  0.04343083  0.38051179     0.15000
C658        C  0.21578156  0.98448224  0.37958346    -0.24000
H659        H  0.34646556  0.03053174  0.40683813     0.05200
H660        H  0.32617171  0.06248787  0.41913303     0.08400
H661        H  0.33669538  0.05793575  0.37927865     0.08400
H662        H  0.21059069  0.97026602  0.39953630     0.08400
H663        H  0.21709909  0.97074985  0.35862626     0.08400
H664        H  0.19696322  0.00025249  0.37666384     0.05200
C665        C  0.30276078  0.87586453  0.22809849    -0.20600
C666        C  0.29066957  0.90084517  0.21355427    -0.07200
C667        C  0.28118515  0.92502415  0.23168747     0.13700
C668        C  0.28218002  0.92271245  0.26361052    -0.20700
C669        C  0.29284533  0.89719016  0.27819999    -0.07200
C670        C  0.30404841  0.87374280  0.26017371     0.13700
C671        C  0.31628157  0.84600627  0.27446474    -0.24000
H672        H  0.31038246  0.85749106  0.21431851     0.15000
H673        H  0.27424733  0.94101489  0.27736763     0.15000
C674        C  0.27052037  0.95364827  0.21777980    -0.24000
H675        H  0.32318671  0.82962342  0.25697170     0.05200
H676        H  0.29892734  0.83558604  0.28905018     0.08400
H677        H  0.33627085  0.85139782  0.28848336     0.08400
H678        H  0.24915094  0.95016656  0.20538361     0.08400
H679        H  0.28775237  0.96234863  0.20188842     0.08400
H680        H  0.26639711  0.97080100  0.23541926     0.05200
C681        C  0.19059229  0.83548033  0.39228549    -0.20600
C682        C  0.21803118  0.82877969  0.37823345    -0.07200
C683        C  0.22175809  0.80045970  0.36489424     0.13700
C684        C  0.19822481  0.77989207  0.36627112    -0.20700
C685        C  0.17060559  0.78675047  0.37985186    -0.07200
C686        C  0.16682008  0.81510792  0.39308044     0.13700
C687        C  0.13794200  0.82433311  0.40807799    -0.24000
H688        H  0.18750129  0.85712691  0.40249901     0.15000
H689        H  0.20127942  0.75832339  0.35589148     0.15000
C690        C  0.24997068  0.79177465  0.34828106    -0.24000
H691        H  0.13939512  0.84693962  0.41783702     0.05200
H692        H  0.13248220  0.80895516  0.42699911     0.08400
H693        H  0.11954750  0.82442823  0.39101699     0.08400
H694        H  0.26926798  0.79202906  0.36425508     0.08400
H695        H  0.25407027  0.80723944  0.32905763     0.08400
H696        H  0.24842713  0.76917202  0.33853395     0.05200
C697        C  0.14862021  0.50901412  0.47228165    -0.20600
C698        C  0.14450573  0.49235701  0.49893739    -0.07200
C699        C  0.14225245  0.50710274  0.52726667     0.13700
C700        C  0.14658508  0.53739166  0.02414863    -0.20700
C701        C  0.14419471  0.55309210  0.99652060    -0.07200
C702        C  0.14806817  0.54009925  0.47290483     0.13700
C703        C  0.14576021  0.55235578  0.93797911    -0.24000
H704        H  0.15048686  0.49759829  0.45060920     0.15000
H705        H  0.14582253  0.54932357  0.04558396     0.15000
C706        C  0.13901083  0.49022414  0.55673684    -0.24000
H707        H  0.15648054  0.54166803  0.42396976     0.05200
H708        H  0.17090081  0.57232321  0.44537889     0.08400
H709        H  0.12405576  0.56375673  0.93440438     0.08400
H710        H  0.15900837  0.47608159  0.56030370     0.08400
H711        H  0.12568241  0.47731939  0.05701771     0.08400
H712        H  0.14753165  0.50612578  0.07440337     0.05200
C713        C  0.96284790  0.66302777  0.49987507    -0.20600
C714        C  0.94888809  0.63341706  0.99705566    -0.07200
C715        C  0.96559767  0.60715148  0.99270676     0.13700
C716        C  0.99700696  0.60855748  0.99284811    -0.20700
C717        C  0.01126192  0.63876747  0.49677352    -0.07200
C718        C  0.99412026  0.66489363  0.50021273     0.13700
C719        C  0.00820356  0.69499044  0.50387704    -0.24000
H720        H  0.94990693  0.68306917  0.50278274     0.15000
H721        H  0.00978599  0.58841966  0.98983481     0.15000
C722        C  0.95081195  0.57752339  0.98819532    -0.24000
H723        H  0.99114652  0.71277555  0.50536622     0.05200
H724        H  0.02262126  0.69989601  0.48387477     0.08400
H725        H  0.02159704  0.69581045  0.52521040     0.08400
H726        H  0.93684630  0.57789912  0.96721669     0.08400
H727        H  0.93672353  0.57212181  0.00828790     0.08400
H728        H  0.96748261  0.55951492  0.98551308     0.05200
C729        C  0.96653288  0.42712528  0.02446710    -0.20600
C730        C  0.95256341  0.42226917  0.49396533    -0.07200
C731        C  0.97006121  0.41930633  0.46713086     0.13700
C732        C  0.00137870  0.42040044  0.46933526    -0.20700
C733        C  0.01533328  0.42174941  0.00046727    -0.07200
C734        C  0.99790656  0.42722702  0.02685184     0.13700
C735        C  0.01192983  0.43302528  0.05760124    -0.24000
H736        H  0.95321788  0.43101615  0.04479301     0.15000
H737        H  0.01460622  0.41734012  0.44881603     0.15000
C738        C  0.95631305  0.41401862  0.43614024    -0.24000
H739        H  0.99484028  0.43809825  0.07523885     0.05200
H740        H  0.02729945  0.45224316  0.05610792     0.08400
H741        H  0.02510659  0.41399240  0.56246345     0.08400
H742        H  0.94153134  0.42718347  0.93157954     0.08400
H743        H  0.94353818  0.39298319  0.43625157     0.08400
H744        H  0.97354531  0.41227441  0.41795775     0.05200
C745        C  0.82035137  0.50923809  0.46580528    -0.20600
C746        C  0.82075143  0.49156233  0.99595642    -0.07200
C747        C  0.81747906  0.50618253  0.02426005     0.13700
C748        C  0.81607073  0.53716983  0.02488678    -0.20700
C749        C  0.81712433  0.55507126  0.49460136    -0.07200
C750        C  0.81858842  0.54022594  0.46619034     0.13700
C751        C  0.82101691  0.55680404  0.43646338    -0.24000
H752        H  0.82400813  0.49785946  0.44434851     0.15000
H753        H  0.81569790  0.54848889  0.04668825     0.15000
C754        C  0.81860490  0.48952464  0.05401862    -0.24000
H755        H  0.82193877  0.54159542  0.41658374     0.05200
H756        H  0.84171509  0.57038296  0.43627221     0.08400
H757        H  0.80117941  0.57129358  0.43351940     0.08400
H758        H  0.84023822  0.47758998  0.05604161     0.08400
H759        H  0.79987318  0.47345367  0.05500697     0.08400
H760        H  0.81659287  0.50452749  0.07397487     0.05200
C761        C  0.46553815  0.17993967  0.02524154    -0.20600
C762        C  0.44894576  0.17685296  0.99815718    -0.07200
C763        C  0.46472453  0.18064639  0.47313972     0.13700
C764        C  0.49624433  0.17970006  0.47337060    -0.20700
C765        C  0.51247072  0.17602780  0.50063607    -0.07200
C766        C  0.49705037  0.17959640  0.02516041     0.13700
C767        C  0.51341365  0.18215183  0.05514563    -0.24000
H768        H  0.45373059  0.18102130  0.04682289     0.15000
H769        H  0.50825511  0.18011281  0.45188603     0.15000
C770        C  0.44873590  0.18265400  0.44289925    -0.24000
H771        H  0.49779365  0.18581265  0.07447899     0.05200
H772        H  0.52904521  0.20121602  0.05435443     0.08400
H773        H  0.52605573  0.16154811  0.05984269     0.08400
H774        H  0.43392411  0.20233520  0.44271935     0.08400
H775        H  0.43525297  0.16240444  0.43895410     0.08400
H776        H  0.46466142  0.18484439  0.42357992     0.05200
C777        C  0.39160604  0.00228276  0.00659188    -0.20600
C778        C  0.36570876  0.98684993  0.99775422    -0.07200
C779        C  0.34087699  0.00433592  0.48943568     0.13700
C780        C  0.34156683  0.03523562  0.49105420    -0.20700
C781        C  0.36830954  0.05064973  0.49639557    -0.07200
C782        C  0.39528005  0.03461462  0.50006139     0.13700
C783        C  0.42499096  0.04973108  0.50494904    -0.24000
H784        H  0.41136763  0.99003723  0.01342655     0.15000
H785        H  0.32101915  0.04751562  0.48762816     0.15000
C786        C  0.31136108  0.98843639  0.97844822    -0.24000
H787        H  0.44345868  0.03360845  0.50819080     0.05200
H788        H  0.41644915  0.06334489  0.03593880     0.08400
H789        H  0.43065016  0.06336931  0.48470695     0.08400
H790        H  0.30235139  0.97429183  0.99698076     0.08400
H791        H  0.31328407  0.97691904  0.46059469     0.08400
H792        H  0.29305332  0.00582288  0.47918824     0.05200
C793        C  0.57152567  0.00100865  0.49636234    -0.20600
C794        C  0.59842971  0.98632757  0.50309286    -0.07200
C795        C  0.62521214  0.00220505  0.00566432     0.13700
C796        C  0.62369064  0.03312040  0.00509672    -0.20700
C797        C  0.59650533  0.04795632  0.00045672    -0.07200
C798        C  0.56978921  0.03192528  0.49566503     0.13700
C799        C  0.54042965  0.04607873  0.48701629    -0.24000
H800        H  0.55159137  0.98819105  0.49138682     0.15000
H801        H  0.64394477  0.04585899  0.00856948     0.15000
C802        C  0.65544694  0.98801144  0.01047387    -0.24000
H803        H  0.52305335  0.02937280  0.48137487     0.05200
H804        H  0.54354303  0.06029052  0.46660998     0.08400
H805        H  0.53311042  0.05902521  0.00903221     0.08400
H806        H  0.66172305  0.97578950  0.49584406     0.08400
H807        H  0.65552171  0.97477144  0.03172342     0.08400
H808        H  0.67357496  0.00468107  0.01260734     0.05200
C809        C  0.49742989  0.85291236  0.02876331    -0.20600
C810        C  0.51436986  0.85462409  0.00183037    -0.07200
C811        C  0.50102016  0.85307705  0.47259481     0.13700
C812        C  0.46962949  0.85406323  0.47140053    -0.20700
C813        C  0.45249099  0.85606124  0.49812743    -0.07200
C814        C  0.46599128  0.85312171  0.02790094     0.13700
C815        C  0.44876835  0.85359401  0.05744623    -0.24000
H816        H  0.50883492  0.85378481  0.05061909     0.15000
H817        H  0.45848487  0.85569511  0.44945099     0.15000
C818        C  0.51840227  0.85336245  0.44312620    -0.24000
H819        H  0.46384809  0.85204586  0.07756981     0.05200
H820        H  0.43315035  0.83452806  0.05817316     0.08400
H821        H  0.43586553  0.87445980  0.05936968     0.08400
H822        H  0.53360540  0.83398862  0.44231814     0.08400
H823        H  0.53168715  0.87401828  0.44133867     0.08400
H824        H  0.50340314  0.85220011  0.42291559     0.05200
In825      In  0.59754162  0.89395441  0.00270235     1.36900
C826        C  0.62692776  0.88676246  0.95090271     0.77300
O827        O  0.57550493  0.93788731  0.99407499    -0.61200
O828        O  0.62078297  0.93826657  0.50967695    -0.52100
C829        C  0.54655536  0.86533485  0.50410405     0.69900
O830        O  0.56629194  0.85791625  0.98619039    -0.46900
C831        C  0.62904079  0.88342850  0.55385165     0.74600
O832        O  0.60261406  0.90088491  0.95229917    -0.58800
O833        O  0.60279973  0.89346648  0.55465070    -0.48900
O834        O  0.63460129  0.87389560  0.97527453    -0.55200
C835        C  0.59808373  0.95282917  0.00182424     0.84800
O836        O  0.55341114  0.88466599  0.52347915    -0.57100
O837        O  0.63800395  0.87560173  0.52782849    -0.60400
In838      In  0.36806921  0.89507933  0.99639559     1.36900
C839        C  0.33751663  0.89014358  0.54620735     0.77300
O840        O  0.39033439  0.94090417  0.50545493    -0.61200
O841        O  0.34550451  0.93829077  0.98824203    -0.52100
C842        C  0.42057029  0.86702896  0.99699141     0.69900
O843        O  0.39987618  0.85927839  0.51122454    -0.46900
C844        C  0.34087721  0.88339445  0.94391672     0.74600
O845        O  0.36279902  0.90258014  0.54600594    -0.58800
O846        O  0.36377006  0.89954714  0.94547876    -0.48900
O847        O  0.32963073  0.87920213  0.52096685    -0.55200
C848        C  0.36845952  0.95543510  0.49513375     0.84800
O849        O  0.41473359  0.88853311  0.97989129    -0.57100
O850        O  0.33417711  0.87028383  0.96839005    -0.60400
In851      In  0.36362433  0.14104656  0.99966979     1.36900
C852        C  0.33207704  0.14969031  0.94894831     0.77300
O853        O  0.38817859  0.09809873  0.99256193    -0.61200
O854        O  0.34300750  0.09687624  0.50377733    -0.52100
C855        C  0.41667616  0.16941391  0.50222587     0.69900
O856        O  0.39756865  0.17315767  0.97999410    -0.46900
C857        C  0.33256918  0.15346535  0.55128157     0.74600
O858        O  0.35769256  0.13796267  0.94864883    -0.58800
O859        O  0.35639746  0.13868539  0.55115698    -0.48900
O860        O  0.32387756  0.15938349  0.97461845    -0.55200
C861        C  0.36593830  0.08199346  0.99809562     0.84800
O862        O  0.40671685  0.15354261  0.52340480    -0.57100
O863        O  0.32594168  0.16513244  0.52600805    -0.60400
In864      In  0.59821376  0.13954798  0.99759575     1.36900
C865        C  0.63090543  0.15058683  0.54849737     0.77300
O866        O  0.57313567  0.09739055  0.50340539    -0.61200
O867        O  0.62002331  0.09505181  0.99323052    -0.52100
C868        C  0.54440363  0.16589333  0.99611838     0.69900
O869        O  0.56321795  0.17042159  0.52000327    -0.46900
C870        C  0.62716864  0.15171061  0.94630589     0.74600
O871        O  0.60584618  0.13772397  0.54951708    -0.58800
O872        O  0.60502828  0.13455194  0.94720282    -0.48900
O873        O  0.63803791  0.16036393  0.52251876    -0.55200
C874        C  0.59610813  0.08149456  0.50142794     0.84800
O875        O  0.55411085  0.14954062  0.97519912    -0.57100
O876        O  0.63271977  0.16504428  0.97096867    -0.60400
In877      In  0.85961962  0.40865230  0.99640648     1.36900
C878        C  0.84976086  0.37479165  0.94806723     0.77300
O879        O  0.90336904  0.41684966  0.97274635    -0.61200
O880        O  0.90434690  0.41784416  0.51844635    -0.52100
C881        C  0.83223739  0.46242471  0.49225918     0.69900
O882        O  0.82223244  0.43981293  0.01033691    -0.46900
C883        C  0.84805283  0.37958039  0.54576816     0.74600
O884        O  0.83270606  0.39635791  0.95388975    -0.58800
O885        O  0.85876602  0.40534871  0.54639849    -0.48900
O886        O  0.86988498  0.37014744  0.96757158    -0.55200
C887        C  0.91882663  0.41846194  0.99662279     0.84800
O888        O  0.85564539  0.45635364  0.47768026    -0.57100
O889        O  0.84062692  0.37062083  0.51956431    -0.60400
In890      In  0.85605569  0.63719350  0.00072297     1.36900
C891        C  0.84500165  0.66687065  0.55103151     0.77300
O892        O  0.89853771  0.61419590  0.49114237    -0.61200
O893        O  0.90165446  0.65701354  0.00618185    -0.52100
C894        C  0.82799395  0.58513624  0.00089206     0.69900
O895        O  0.84359797  0.59421542  0.51919354    -0.46900
C896        C  0.84690690  0.66661250  0.94911988     0.74600
O897        O  0.85990388  0.64333673  0.54987440    -0.58800
O898        O  0.86378367  0.64433471  0.95064171    -0.48900
O899        O  0.83259860  0.67416678  0.52627883    -0.55200
C900        C  0.91476353  0.63626838  0.49670159     0.84800
O901        O  0.82102614  0.60533435  0.98240918    -0.57100
O902        O  0.83269098  0.67236261  0.97331325    -0.60400
In903      In  0.10521130  0.63631562  0.99879204     1.36900
C904        C  0.11455907  0.66593993  0.94773765     0.77300
O905        O  0.06079213  0.65832692  0.99635451    -0.61200
O906        O  0.05985314  0.61603664  0.49219654    -0.52100
C907        C  0.13183384  0.58602119  0.50196833     0.69900
O908        O  0.12394681  0.59581349  0.02183855    -0.46900
C909        C  0.11664668  0.66935661  0.55023722     0.74600
O910        O  0.09971814  0.64221846  0.94840570    -0.58800
O911        O  0.10578117  0.64372722  0.55113772    -0.48900
O912        O  0.12705521  0.67301866  0.97262686    -0.55200
C913        C  0.04539643  0.63523488  0.99732159     0.84800
O914        O  0.13889210  0.60566387  0.48287859    -0.57100
O915        O  0.12429552  0.67788040  0.52402310    -0.60400
In916      In  0.10722314  0.40791392  0.99994140     1.36900
C917        C  0.11822488  0.37843839  0.54978984     0.77300
O918        O  0.06433061  0.41699536  0.47445263    -0.61200
O919        O  0.06378352  0.41608396  0.02490473    -0.52100
C920        C  0.13428756  0.46004748  0.99611932     0.69900
O921        O  0.11372199  0.45392456  0.47902822    -0.46900
C922        C  0.11355267  0.37160996  0.95245647     0.74600
O923        O  0.10725096  0.40406054  0.54997485    -0.58800
O924        O  0.13058221  0.39372104  0.95588453    -0.48900
O925        O  0.12654102  0.36942268  0.52389766    -0.55200
C926        C  0.04904148  0.42024299  0.49827977     0.84800
O927        O  0.14639796  0.43862880  0.00983774    -0.57100
O928        O  0.09540523  0.36747450  0.97395825    -0.60400
In929      In  0.28198801  0.89441978  0.87270259     1.36900
C930        C  0.27375286  0.95184087  0.88481258     0.77300
O931        O  0.29339970  0.87891483  0.91984406    -0.61200
O932        O  0.32926628  0.89201429  0.89111012    -0.52100
C933        C  0.24096374  0.85201602  0.87779217     0.69900
O934        O  0.23569090  0.87875692  0.88415658    -0.46900
C935        C  0.28943444  0.89472398  0.81205182     0.74600
O936        O  0.25246627  0.93347624  0.88563707    -0.58800
O937        O  0.30665777  0.88041427  0.82951380    -0.48900
O938        O  0.29871952  0.94039690  0.87860939    -0.55200
C939        C  0.32103975  0.88367138  0.91727627     0.84800
O940        O  0.26754484  0.84721100  0.86942508    -0.57100
O941        O  0.26890771  0.90824777  0.82583404    -0.60400
In942      In  0.10291257  0.72310546  0.87595432     1.36900
C943        C  0.04502265  0.73039704  0.88901799     0.77300
O944        O  0.08686971  0.73391206  0.82895869    -0.61200
O945        O  0.11788134  0.69893431  0.83309008    -0.52100
C946        C  0.14572784  0.76403043  0.88010487     0.69900
O947        O  0.11882449  0.76887804  0.88740435    -0.46900
C948        C  0.11408566  0.68548190  0.92110615     0.74600
O949        O  0.06298344  0.75191813  0.88730779    -0.58800
O950        O  0.10617185  0.67693077  0.89487566    -0.48900
O951        O  0.05702776  0.70559709  0.88457746    -0.55200
C952        C  0.10221754  0.71466204  0.81540788     0.84800
O953        O  0.15053720  0.73792725  0.87117634    -0.57100
O954        O  0.11848949  0.71286074  0.92349175    -0.60400
In955      In  0.27974955  0.90057916  0.61888453     1.36900
C956        C  0.27384873  0.95825487  0.60944194     0.77300
O957        O  0.26663185  0.91380183  0.66596966    -0.61200
O958        O  0.30433607  0.88592792  0.66186961    -0.52100
C959        C  0.23776639  0.85900410  0.61423406     0.69900
O960        O  0.23330624  0.88559798  0.60679204    -0.46900
C961        C  0.31756214  0.89083557  0.57284209     0.74600
O962        O  0.25181519  0.94080597  0.60757598    -0.58800
O963        O  0.32653296  0.89614231  0.59962500    -0.48900
O964        O  0.29830491  0.94593601  0.61582357    -0.55200
C965        C  0.28715906  0.90006932  0.67956501     0.84800
O966        O  0.26413702  0.85381521  0.62326737    -0.57100
O967        O  0.28959070  0.88843060  0.57017283    -0.60400
In968      In  0.10382769  0.72573652  0.62229046     1.36900
C969        C  0.04539768  0.72987965  0.61035944     0.77300
O970        O  0.11601516  0.71680622  0.57361807    -0.61200
O971        O  0.11250425  0.68009888  0.60373558    -0.52100
C972        C  0.14680604  0.76663014  0.61812363     0.69900
O973        O  0.11989847  0.77163431  0.61075203    -0.46900
C974        C  0.10150267  0.71785756  0.68289307     0.74600
O975        O  0.06238536  0.75220289  0.61142803    -0.58800
O976        O  0.11654510  0.70110553  0.66564335    -0.48900
O977        O  0.05867965  0.70561924  0.61419728    -0.55200
C978        C  0.11624386  0.68913378  0.57671737     0.84800
O979        O  0.15132887  0.74063831  0.62738417    -0.57100
O980        O  0.08819370  0.73831462  0.66898756    -0.60400
In981      In  0.10444651  0.31819468  0.87641658     1.36900
C982        C  0.04445486  0.31658560  0.87484220     0.77300
O983        O  0.09866757  0.32841682  0.92574944    -0.61200
O984        O  0.12393897  0.35908561  0.89973697    -0.52100
C985        C  0.14442504  0.27499824  0.88540857     0.69900
O986        O  0.11666059  0.27152612  0.88936760    -0.46900
C987        C  0.11141998  0.32572864  0.81640479     0.74600
O988        O  0.06016740  0.29478844  0.88311566    -0.58800
O989        O  0.11627487  0.34640476  0.83524517    -0.48900
O990        O  0.05971308  0.33902422  0.86772678    -0.55200
C991        C  0.11280223  0.35245401  0.92535188     0.84800
O992        O  0.15154349  0.30093037  0.87770893    -0.57100
O993        O  0.10352033  0.30176199  0.82865196    -0.60400
In994      In  0.27369999  0.13818689  0.87708411     1.36900
C995        C  0.27079491  0.07992088  0.88653596     0.77300
O996        O  0.26036424  0.12457858  0.82989187    -0.61200
O997        O  0.29712038  0.15385735  0.83412070    -0.52100
C998        C  0.23380348  0.18144513  0.88377285     0.69900
O999        O  0.22812134  0.15499538  0.89128173    -0.46900
C1000       C  0.31190324  0.14889631  0.92249165     0.74600
O1001       O  0.24763674  0.09604177  0.88798036    -0.58800
O1002       O  0.32067051  0.14405723  0.89554852    -0.48900
O1003       O  0.29435386  0.09395344  0.88047894    -0.55200
C1004       C  0.28049678  0.13905026  0.81642796     0.84800
O1005       O  0.25961361  0.18506013  0.87280542    -0.57100
O1006       O  0.28391409  0.15020514  0.92560843    -0.60400
In1007     In  0.10710274  0.32356589  0.62356826     1.36900
C1008       C  0.04817750  0.31859442  0.61487909     0.77300
O1009       O  0.09594938  0.30911875  0.67047602    -0.61200
O1010       O  0.12300109  0.34738725  0.66657543    -0.52100
C1011       C  0.14889782  0.28226594  0.61755719     0.69900
O1012       O  0.12188561  0.27820384  0.60996162    -0.46900
C1013       C  0.11782524  0.35934591  0.57682638     0.74600
O1014       O  0.06544956  0.29651963  0.61503204    -0.58800
O1015       O  0.11411129  0.36900500  0.60364539    -0.48900
O1016       O  0.06127777  0.34293003  0.61919102    -0.55200
C1017       C  0.11091365  0.32863030  0.68408004     0.84800
O1018       O  0.15438057  0.30792339  0.62734148    -0.57100
O1019       O  0.11815405  0.33161876  0.57448996    -0.60400
In1020     In  0.27523644  0.14302564  0.62382177     1.36900
C1021       C  0.26957070  0.08543834  0.61340190     0.77300
O1022       O  0.28451827  0.15518878  0.57496058    -0.61200
O1023       O  0.32162085  0.14869629  0.60462604    -0.52100
C1024       C  0.23434522  0.18546121  0.61870749     0.69900
O1025       O  0.22904037  0.15893779  0.61149876    -0.46900
C1026       C  0.28387603  0.14248680  0.68422835     0.74600
O1027       O  0.24714852  0.10245586  0.61434089    -0.58800
O1028       O  0.30011056  0.15766567  0.66656285    -0.48900
O1029       O  0.29435016  0.09822891  0.61724620    -0.55200
C1030       C  0.31254389  0.15358561  0.57778670     0.84800
O1031       O  0.26058059  0.18982147  0.62848814    -0.57100
O1032       O  0.26379284  0.12790844  0.67080785    -0.60400
In1033     In  0.85817963  0.72442811  0.87780295     1.36900
C1034       C  0.91626094  0.72928414  0.89099716     0.77300
O1035       O  0.84157640  0.71346314  0.92486123    -0.61200
O1036       O  0.85518157  0.67802361  0.89631072    -0.52100
C1037       C  0.81728128  0.76682156  0.88275901     0.69900
O1038       O  0.84453606  0.77066721  0.88943255    -0.46900
C1039       C  0.85852774  0.71831410  0.81703308     0.74600
O1040       O  0.89886302  0.75129570  0.89154168    -0.58800
O1041       O  0.84336892  0.70141690  0.83403367    -0.48900
O1042       O  0.90371710  0.70537327  0.88389210    -0.55200
C1043       C  0.84683248  0.68623173  0.92248124     0.84800
O1044       O  0.81100085  0.74082240  0.87431058    -0.57100
O1045       O  0.87288904  0.73776660  0.83134429    -0.60400
In1046     In  0.68367298  0.89980395  0.87837869     1.36900
C1047       C  0.64650755  0.88823503  0.92416182     0.77300
O1048       O  0.69815711  0.85275041  0.87492480    -0.61200
O1049       O  0.73054884  0.88432296  0.88863378    -0.52100
C1050       C  0.67708649  0.89908506  0.81773255     0.69900
O1051       O  0.65979840  0.88491863  0.83525488    -0.46900
C1052       C  0.68821787  0.95756577  0.88907675     0.74600
O1053       O  0.63716057  0.89404188  0.89761308    -0.58800
O1054       O  0.71038996  0.94033732  0.89146544    -0.48900
O1055       O  0.67453973  0.88653551  0.92669204    -0.55200
C1056       C  0.72492302  0.85751093  0.88273232     0.84800
O1057       O  0.69703093  0.91356768  0.83150998    -0.57100
O1058       O  0.66407274  0.94503565  0.88175981    -0.60400
In1059     In  0.85797002  0.72218197  0.62384495     1.36900
C1060       C  0.91629089  0.72601397  0.61217259     0.77300
O1061       O  0.87224889  0.73549962  0.67055964    -0.61200
O1062       O  0.84280004  0.69900980  0.66700051    -0.52100
C1063       C  0.81601221  0.76337144  0.62000793     0.69900
O1064       O  0.84309119  0.76826931  0.61326883    -0.46900
C1065       C  0.84570172  0.68610295  0.57787364     0.74600
O1066       O  0.89915409  0.74822794  0.61138260    -0.58800
O1067       O  0.85059240  0.67666423  0.60456301    -0.48900
O1068       O  0.90342768  0.70211294  0.61888920    -0.55200
C1069       C  0.85725958  0.71613974  0.68441428     0.84800
O1070       O  0.81071208  0.73715505  0.62808769    -0.57100
O1071       O  0.84484446  0.71380420  0.57533896    -0.60400
In1072     In  0.68617963  0.89853500  0.62497438     1.36900
C1073       C  0.68894440  0.95643931  0.61431758     0.77300
O1074       O  0.67702073  0.88607287  0.57669278    -0.61200
O1075       O  0.63997170  0.88901788  0.60705608    -0.52100
C1076       C  0.72770372  0.85724835  0.62009380     0.69900
O1077       O  0.73204742  0.88361801  0.61176815    -0.46900
C1078       C  0.68058404  0.89867595  0.68533436     0.74600
O1079       O  0.71143371  0.93975249  0.61133797    -0.58800
O1080       O  0.66162073  0.88609428  0.66824218    -0.48900
O1081       O  0.66556340  0.94322779  0.62268387    -0.55200
C1082       C  0.64907238  0.88507349  0.58009131     0.84800
O1083       O  0.70182141  0.85227424  0.63047089    -0.57100
O1084       O  0.70221026  0.91021656  0.67130922    -0.60400
In1085     In  0.85389682  0.32322388  0.87133341     1.36900
C1086       C  0.84828022  0.35640776  0.92065394     0.77300
O1087       O  0.80637277  0.30778526  0.87608009    -0.61200
O1088       O  0.84099501  0.27648240  0.88280006    -0.52100
C1089       C  0.84784158  0.32984099  0.81123932     0.69900
O1090       O  0.84363222  0.35127238  0.82933507    -0.46900
C1091       C  0.91376015  0.32139451  0.87070998     0.74600
O1092       O  0.83580423  0.36385396  0.89584051    -0.58800
O1093       O  0.89775153  0.29931914  0.87762204    -0.48900
O1094       O  0.86190764  0.33211554  0.91999506    -0.55200
C1095       C  0.81316564  0.28121027  0.88152876     0.84800
O1096       O  0.85375687  0.30582379  0.82443068    -0.57100
O1097       O  0.89881641  0.34415417  0.86409602    -0.60400
In1098     In  0.68512037  0.14279912  0.87467790     1.36900
C1099       C  0.69078876  0.08501020  0.88567429     0.77300
O1100       O  0.67517842  0.15405236  0.92327031    -0.61200
O1101       O  0.63834056  0.14827003  0.89288734    -0.52100
C1102       C  0.72385893  0.18744547  0.88046842     0.69900
O1103       O  0.73054957  0.16110648  0.88737247    -0.46900
C1104       C  0.67915650  0.14176401  0.81390479     0.74600
O1105       O  0.71301625  0.10233549  0.88536377    -0.58800
O1106       O  0.66036308  0.15471416  0.83084584    -0.48900
O1107       O  0.66601213  0.09749011  0.88098703    -0.55200
C1108       C  0.64719165  0.15253978  0.91995503     0.84800
O1109       O  0.69724690  0.19053609  0.87133269    -0.57100
O1110       O  0.70052341  0.13008465  0.82820791    -0.60400
In1111     In  0.85996339  0.32332342  0.61855357     1.36900
C1112       C  0.91884229  0.31998265  0.60896849     0.77300
O1113       O  0.84563473  0.33254425  0.57028085    -0.61200
O1114       O  0.85383561  0.36923988  0.59926213    -0.52100
C1115       C  0.82021496  0.27943245  0.61452324     0.69900
O1116       O  0.84733520  0.27646896  0.60693015    -0.46900
C1117       C  0.85647570  0.32966211  0.67899303     0.74600
O1118       O  0.90193881  0.29769586  0.60659040    -0.58800
O1119       O  0.84286784  0.34689772  0.66101422    -0.48900
O1120       O  0.90537833  0.34345179  0.61585679    -0.55200
C1121       C  0.84804945  0.36017025  0.57265525     0.84800
O1122       O  0.81361355  0.30518212  0.62340058    -0.57100
O1123       O  0.87284579  0.31099984  0.66584534    -0.60400
In1124     In  0.68970321  0.14232051  0.62056605     1.36900
C1125       C  0.65148106  0.15120672  0.57471172     0.77300
O1126       O  0.70349566  0.18951241  0.62527917    -0.61200
O1127       O  0.73577078  0.15967324  0.60815871    -0.52100
C1128       C  0.68167441  0.14274097  0.68123866     0.69900
O1129       O  0.66529546  0.15734289  0.66317317    -0.46900
C1130       C  0.69370917  0.08423807  0.61109195     0.74600
O1131       O  0.64288823  0.14803317  0.60196741    -0.58800
O1132       O  0.71654629  0.10083451  0.61055918    -0.48900
O1133       O  0.67949373  0.15218836  0.57134311    -0.55200
C1134       C  0.72994810  0.18598511  0.61599092     0.84800
O1135       O  0.70184489  0.12803747  0.66806178    -0.57100
O1136       O  0.66955234  0.09774829  0.61601455    -0.60400
C1137       C  0.76924990  0.26067238  0.62619353    -0.20600
C1138       C  0.79762892  0.25505997  0.61372139    -0.07200
C1139       C  0.80337801  0.22664475  0.60137970     0.13700
C1140       C  0.78072732  0.20495860  0.60200859    -0.20700
C1141       C  0.75243589  0.21050696  0.61485161    -0.07200
C1142       C  0.74672354  0.23903379  0.62705318     0.13700
C1143       C  0.71720629  0.24712860  0.64151248    -0.24000
H1144       H  0.76461169  0.28229725  0.63579073     0.15000
H1145       H  0.78533960  0.18325205  0.59256067     0.15000
C1146       C  0.83318485  0.21876752  0.58752055    -0.24000
H1147       H  0.71703782  0.27025889  0.64999076     0.05200
H1148       H  0.71276602  0.23253942  0.66136109     0.08400
H1149       H  0.69890522  0.24509157  0.62447969     0.08400
H1150       H  0.85105748  0.22041123  0.60507122     0.08400
H1151       H  0.83819015  0.23384075  0.56820869     0.08400
H1152       H  0.83341320  0.19582359  0.57853190     0.05200
C1153       C  0.66478869  0.16469284  0.76407482    -0.20600
C1154       C  0.67709867  0.14065263  0.78000070    -0.07200
C1155       C  0.68845516  0.11641167  0.76315946     0.13700
C1156       C  0.68910520  0.11777583  0.73113599    -0.20700
C1157       C  0.67805550  0.14234189  0.71511198    -0.07200
C1158       C  0.66501458  0.16583067  0.73187979     0.13700
C1159       C  0.65219615  0.19258609  0.71618313    -0.24000
H1160       H  0.65574746  0.18310775  0.77690682     0.15000
H1161       H  0.69840420  0.09938243  0.71846611     0.15000
C1162       C  0.69918631  0.08857004  0.77864053    -0.24000
H1163       H  0.64377989  0.20911673  0.73281929     0.05200
H1164       H  0.63309166  0.18593763  0.70147520     0.08400
H1165       H  0.66970306  0.20338389  0.70209166     0.08400
H1166       H  0.68137053  0.07984782  0.79385072     0.08400
H1167       H  0.71972168  0.09306220  0.79210310     0.08400
H1168       H  0.70477172  0.07103006  0.76186694     0.05200
C1169       C  0.85019235  0.30467381  0.76141182    -0.20600
C1170       C  0.84724873  0.33150942  0.77723199    -0.07200
C1171       C  0.84591722  0.35812331  0.76020208     0.13700
C1172       C  0.84840584  0.35699986  0.72806492    -0.20700
C1173       C  0.85284854  0.33009598  0.71267410    -0.07200
C1174       C  0.85326374  0.30355199  0.72970057     0.13700
C1175       C  0.85631996  0.27364014  0.71474681    -0.24000
H1176       H  0.85073834  0.28408777  0.77403381     0.15000
H1177       H  0.84769555  0.37728018  0.71496175     0.15000
C1178       C  0.84249186  0.38769475  0.77552358    -0.24000
H1179       H  0.85400548  0.25532369  0.73144614     0.05200
H1180       H  0.87874865  0.27145238  0.70414606     0.08400
H1181       H  0.83862674  0.27076411  0.69716487     0.08400
H1182       H  0.86171125  0.39171176  0.79107387     0.08400
H1183       H  0.82127335  0.38823784  0.78866876     0.08400
H1184       H  0.84183874  0.40601831  0.75867906     0.05200
C1185       C  0.76205769  0.26261056  0.87074116    -0.20600
C1186       C  0.79012323  0.25751771  0.88414912    -0.07200
C1187       C  0.79560544  0.22977970  0.89805922     0.13700
C1188       C  0.77334343  0.20774041  0.89703277    -0.20700
C1189       C  0.74564930  0.21245436  0.88248838    -0.07200
C1190       C  0.73992065  0.24061164  0.86944971     0.13700
C1191       C  0.71102074  0.24771633  0.85319147    -0.24000
H1192       H  0.75768093  0.28385150  0.86011646     0.15000
H1193       H  0.77782242  0.18641408  0.90745237     0.15000
C1194       C  0.82457179  0.22326816  0.91440020    -0.24000
H1195       H  0.71090249  0.27055355  0.84392280     0.05200
H1196       H  0.69195467  0.24590625  0.86929453     0.08400
H1197       H  0.70778965  0.23240339  0.83365918     0.08400
H1198       H  0.82847204  0.24003455  0.93248295     0.08400
H1199       H  0.84345514  0.22342388  0.89799225     0.08400
H1200       H  0.82422798  0.20118759  0.92545127     0.05200
C1201       C  0.71806694  0.00316583  0.61007363    -0.20600
C1202       C  0.69009110  0.98893535  0.60949801    -0.07200
C1203       C  0.66391120  0.00622259  0.60564223     0.13700
C1204       C  0.66641150  0.03706286  0.60434038    -0.20700
C1205       C  0.69414160  0.05149133  0.60745156    -0.07200
C1206       C  0.72046998  0.03417000  0.60932943     0.13700
C1207       C  0.75107477  0.04796162  0.61159530    -0.24000
H1208       H  0.73819051  0.99000338  0.61246943     0.15000
H1209       H  0.64618690  0.05008565  0.60204135     0.15000
C1210       C  0.63305774  0.99272112  0.60342605    -0.24000
H1211       H  0.76902339  0.03102810  0.61278434     0.05200
H1212       H  0.75259872  0.06166180  0.63255573     0.08400
H1213       H  0.75533974  0.06183742  0.59117176     0.08400
H1214       H  0.62688617  0.98242316  0.62551548     0.08400
H1215       H  0.63240644  0.97584717  0.58508341     0.08400
H1216       H  0.61569651  0.00950464  0.59808563     0.05200
C1217       C  0.80193633  0.81600234  0.61360690    -0.20600
C1218       C  0.79271875  0.78677559  0.61895355    -0.07200
C1219       C  0.76185284  0.78093495  0.62349885     0.13700
C1220       C  0.74145257  0.80444091  0.62314005    -0.20700
C1221       C  0.75073618  0.83370655  0.61833222    -0.07200
C1222       C  0.78146230  0.83950318  0.61311032     0.13700
C1223       C  0.79318054  0.87025573  0.60745874    -0.24000
H1224       H  0.82545446  0.82062622  0.61005667     0.15000
H1225       H  0.71794936  0.79983928  0.62683533     0.15000
C1226       C  0.74985458  0.75018592  0.62866777    -0.24000
H1227       H  0.81785337  0.87051429  0.60439045     0.05200
H1228       H  0.78786289  0.88470240  0.62719859     0.08400
H1229       H  0.78302580  0.87938443  0.58633089     0.08400
H1230       H  0.75917480  0.74095474  0.65013618     0.08400
H1231       H  0.75579506  0.73579530  0.60906687     0.08400
H1232       H  0.72508242  0.74995911  0.63083199     0.05200
C1233       C  0.71548005  0.00452586  0.88032958    -0.20600
C1234       C  0.69046229  0.99005587  0.89260907    -0.07200
C1235       C  0.66713795  0.00705415  0.90558047     0.13700
C1236       C  0.66872157  0.03803408  0.90434356    -0.20700
C1237       C  0.69289941  0.05255928  0.89034246    -0.07200
C1238       C  0.71689294  0.03553386  0.87874216     0.13700
C1239       C  0.74320039  0.04973220  0.86304865    -0.24000
H1240       H  0.73332593  0.99146148  0.87041813     0.15000
H1241       H  0.65050666  0.05102710  0.91365645     0.15000
C1242       C  0.64056541  0.99273536  0.92080412    -0.24000
H1243       H  0.75927002  0.03304320  0.85432080     0.05200
H1244       H  0.75539615  0.06413535  0.87936145     0.08400
H1245       H  0.73530028  0.06305029  0.84333927     0.08400
H1246       H  0.64834555  0.97696273  0.93847567     0.08400
H1247       H  0.62684151  0.98077224  0.90369395     0.08400
H1248       H  0.62589574  0.00927781  0.93205534     0.05200
C1249       C  0.66261908  0.87725532  0.73447815    -0.20600
C1250       C  0.67798922  0.89986236  0.71908998    -0.07200
C1251       C  0.69093660  0.92309232  0.73628228     0.13700
C1252       C  0.68928850  0.92236820  0.76821091    -0.20700
C1253       C  0.67505847  0.89918846  0.78379555    -0.07200
C1254       C  0.66107390  0.87652087  0.76660360     0.13700
C1255       C  0.64538371  0.85102209  0.78179195    -0.24000
H1256       H  0.65246140  0.85960180  0.72132260     0.15000
H1257       H  0.69958701  0.94008146  0.78118776     0.15000
C1258       C  0.70610841  0.94913953  0.72133051    -0.24000
H1259       H  0.63645677  0.83501107  0.76485294     0.05200
H1260       H  0.62622408  0.85928939  0.79543882     0.08400
H1261       H  0.66128429  0.83903855  0.79684387     0.08400
H1262       H  0.69062641  0.95968206  0.70473212     0.08400
H1263       H  0.72680293  0.94187944  0.70954291     0.08400
H1264       H  0.71274800  0.96620384  0.73825089     0.05200
C1265       C  0.88171712  0.72699719  0.73377413    -0.20600
C1266       C  0.85734015  0.71435379  0.71832469    -0.07200
C1267       C  0.83374255  0.70184165  0.73559370     0.13700
C1268       C  0.83502392  0.70285956  0.76774366    -0.20700
C1269       C  0.85917614  0.71616393  0.78312079    -0.07200
C1270       C  0.88314460  0.72790529  0.76571843     0.13700
C1271       C  0.91080105  0.74087481  0.78036276    -0.24000
H1272       H  0.90000796  0.73631947  0.72067086     0.15000
H1273       H  0.81669118  0.69381281  0.78093658     0.15000
C1274       C  0.80673094  0.68829292  0.72045535    -0.24000
H1275       H  0.92802855  0.74685631  0.76317436     0.05200
H1276       H  0.92096588  0.72452557  0.79616963     0.08400
H1277       H  0.90505575  0.76136325  0.79293829     0.08400
H1278       H  0.81361557  0.66894355  0.70658893     0.08400
H1279       H  0.79562307  0.70488344  0.70560446     0.08400
H1280       H  0.79006129  0.68051945  0.73743892     0.05200
C1281       C  0.77836039  0.84211956  0.88567183    -0.20600
C1282       C  0.74807586  0.83382860  0.88422291    -0.07200
C1283       C  0.74084471  0.80330793  0.88375160     0.13700
C1284       C  0.76396651  0.78229539  0.88362032    -0.20700
C1285       C  0.79425263  0.79058178  0.88438772    -0.07200
C1286       C  0.80149791  0.82105841  0.88581205     0.13700
C1287       C  0.83343112  0.83181282  0.88679170    -0.24000
H1288       H  0.78408912  0.86543657  0.88621837     0.15000
H1289       H  0.75823100  0.75900198  0.88292374     0.15000
C1290       C  0.70893760  0.79239653  0.88388690    -0.24000
H1291       H  0.83477525  0.85631334  0.88706661     0.05200
H1292       H  0.84567882  0.82392626  0.86632051     0.08400
H1293       H  0.84459659  0.82366264  0.90780948     0.08400
H1294       H  0.69739351  0.79921493  0.86259090     0.08400
H1295       H  0.69697488  0.80138381  0.90405813     0.08400
H1296       H  0.70769678  0.76791918  0.88514340     0.05200
C1297       C  0.00043429  0.34246910  0.60020304    -0.20600
C1298       C  0.01524123  0.31683786  0.61009365    -0.07200
C1299       C  0.99813098  0.29113497  0.61617697     0.13700
C1300       C  0.96671940  0.29235944  0.61378420    -0.20700
C1301       C  0.95191460  0.31863934  0.60591342    -0.07200
C1302       C  0.96914051  0.34370368  0.59783462     0.13700
C1303       C  0.95491834  0.37177910  0.58626830    -0.24000
H1304       H  0.01345444  0.36195110  0.59466202     0.15000
H1305       H  0.95358010  0.27305581  0.61959996     0.15000
C1306       C  0.01248747  0.26276647  0.62660057    -0.24000
H1307       H  0.97200096  0.38799062  0.57876788     0.05200
H1308       H  0.94166532  0.38247749  0.60455903     0.08400
H1309       H  0.94031168  0.36683080  0.56637391     0.08400
H1310       H  0.02516404  0.26661831  0.64805851     0.08400
H1311       H  0.02779906  0.25437242  0.60866346     0.08400
H1312       H  0.99560080  0.24529605  0.63112654     0.05200
C1313       C  0.16222313  0.22990431  0.60753983    -0.20600
C1314       C  0.17175067  0.25838413  0.61591263    -0.07200
C1315       C  0.20226227  0.26277677  0.62364869     0.13700
C1316       C  0.22189792  0.23860154  0.62346721    -0.20700
C1317       C  0.21213773  0.20990292  0.61628318    -0.07200
C1318       C  0.18179955  0.20561648  0.60784559     0.13700
C1319       C  0.16944500  0.17562813  0.59974750    -0.24000
H1320       H  0.13900010  0.22637220  0.60143486     0.15000
H1321       H  0.24509688  0.24217705  0.62961496     0.15000
C1322       C  0.21459709  0.29259730  0.63252525    -0.24000
H1323       H  0.14524793  0.17658476  0.59393535     0.05200
H1324       H  0.17197999  0.16040151  0.61943798     0.08400
H1325       H  0.18139918  0.16665484  0.57958766     0.08400
H1326       H  0.20362255  0.30046190  0.65373959     0.08400
H1327       H  0.21086575  0.30864460  0.61375025     0.08400
H1328       H  0.23905730  0.29179376  0.63705589     0.05200
C1329       C  0.29442003  0.16437521  0.76783353    -0.16600
C1330       C  0.28396219  0.13883285  0.78264397    -0.07200
C1331       C  0.27659979  0.11372071  0.76483718     0.13700
C1332       C  0.27825967  0.11542286  0.73290214    -0.20700
C1333       C  0.28712960  0.14142228  0.71798898    -0.07200
C1334       C  0.29610331  0.16600912  0.73573640     0.13700
C1335       C  0.30625413  0.19436232  0.72106115    -0.24000
H1336       H  0.30041766  0.18351058  0.78141734     0.15000
H1337       H  0.27196291  0.09632046  0.71934724     0.15000
C1338       C  0.26736230  0.08483348  0.77918239    -0.24000
H1339       H  0.31151650  0.21157921  0.73832105     0.05200
H1340       H  0.28834260  0.20306441  0.70594579     0.08400
H1341       H  0.32681754  0.19032244  0.70749424     0.08400
H1342       H  0.24555660  0.08736141  0.79096204     0.08400
H1343       H  0.28469138  0.07753493  0.79573729     0.08400
H1344       H  0.26465939  0.06708361  0.76187293     0.05200
C1345       C  0.99662904  0.34237352  0.86311374    -0.20600
C1346       C  0.01096116  0.31657494  0.87340770    -0.07200
C1347       C  0.99296845  0.29209942  0.88191009     0.13700
C1348       C  0.96154719  0.29447600  0.88055934    -0.20700
C1349       C  0.94724386  0.32048868  0.87078830    -0.07200
C1350       C  0.96528014  0.34472730  0.86161824     0.13700
C1351       C  0.95204043  0.37328784  0.85012957    -0.24000
H1352       H  0.01010186  0.36112735  0.85622429     0.15000
H1353       H  0.94801276  0.27574130  0.88740288     0.15000
C1354       C  0.00640369  0.26333070  0.89245909    -0.24000
H1355       H  0.96959136  0.38942464  0.84345968     0.05200
H1356       H  0.93838892  0.38372292  0.86832340     0.08400
H1357       H  0.93801865  0.36899607  0.82965194     0.08400
H1358       H  0.01987771  0.26698853  0.91342481     0.08400
H1359       H  0.02071651  0.25394429  0.87417559     0.08400
H1360       H  0.98894897  0.24667693  0.89794365     0.05200
C1361       C  0.11665623  0.30189019  0.76595418    -0.20600
C1362       C  0.11436034  0.32829818  0.78259963    -0.07200
C1363       C  0.11350579  0.35543717  0.76643542     0.13700
C1364       C  0.11357439  0.35517378  0.73418725    -0.20700
C1365       C  0.11412293  0.32850768  0.71780202    -0.07200
C1366       C  0.11671620  0.30158815  0.73400152     0.13700
C1367       C  0.12032087  0.27232451  0.71785437    -0.24000
H1368       H  0.11811014  0.28106352  0.77807084     0.15000
H1369       H  0.11206039  0.37578761  0.72173652     0.15000
C1370       C  0.11144386  0.38460506  0.78280189    -0.24000
H1371       H  0.12455671  0.25400340  0.73414824     0.05200
H1372       H  0.13962379  0.27340376  0.70193188     0.08400
H1373       H  0.09965845  0.26668782  0.70506321     0.08400
H1374       H  0.13147701  0.38778413  0.79745582     0.08400
H1375       H  0.09091490  0.38517294  0.79704844     0.08400
H1376       H  0.11038604  0.40342459  0.76658027     0.05200
C1377       C  0.18200595  0.19928269  0.89433761    -0.20600
C1378       C  0.21181039  0.20607992  0.88692520    -0.07200
C1379       C  0.21959983  0.23610424  0.88191415     0.13700
C1380       C  0.19720478  0.25784608  0.88271207    -0.20700
C1381       C  0.16706226  0.25084951  0.88830097    -0.07200
C1382       C  0.15954913  0.22108386  0.89499206     0.13700
C1383       C  0.12797187  0.21177744  0.90230401    -0.24000
H1384       H  0.17594841  0.17642846  0.89881469     0.15000
H1385       H  0.20334183  0.28063715  0.87815704     0.15000
C1386       C  0.25133245  0.24577454  0.87560919    -0.24000
H1387       H  0.12646500  0.18779913  0.90747094     0.05200
H1388       H  0.11313970  0.21619391  0.88248374     0.08400
H1389       H  0.11983704  0.22397167  0.92265127     0.08400
H1390       H  0.25911936  0.23638601  0.85361018     0.08400
H1391       H  0.26623353  0.23852744  0.89448221     0.08400
H1392       H  0.25327401  0.27017413  0.87381266     0.05200
C1393       C  0.99741871  0.70691823  0.59402480    -0.20600
C1394       C  0.01238372  0.73145054  0.60652300    -0.07200
C1395       C  0.99529691  0.75528794  0.61804790     0.13700
C1396       C  0.96390810  0.75338676  0.61800437    -0.20700
C1397       C  0.94906771  0.72808603  0.60737374    -0.07200
C1398       C  0.96600747  0.70488701  0.59430618     0.13700
C1399       C  0.95123719  0.67806527  0.58044488    -0.24000
H1400       H  0.01042009  0.68881591  0.58478184     0.15000
H1401       H  0.95091215  0.77117899  0.62783150     0.15000
C1402       C  0.00983929  0.78205329  0.63216717    -0.24000
H1403       H  0.96782371  0.66318252  0.56950867     0.05200
H1404       H  0.93492873  0.68502632  0.56269476     0.08400
H1405       H  0.93955185  0.66513229  0.59831936     0.08400
H1406       H  0.02353565  0.79371647  0.61482875     0.08400
H1407       H  0.02421551  0.77523696  0.65163441     0.08400
H1408       H  0.99302899  0.79796555  0.64097644     0.05200
C1409       C  0.24482265  0.00471843  0.61535843    -0.20600
C1410       C  0.27132296  0.99068590  0.60605991    -0.07200
C1411       C  0.29562575  0.00807792  0.59576654     0.13700
C1412       C  0.29366582  0.03889249  0.59751060    -0.20700
C1413       C  0.26794100  0.05302269  0.60867446    -0.07200
C1414       C  0.24275210  0.03571070  0.61673902     0.13700
C1415       C  0.21412267  0.04951525  0.62792965    -0.24000
H1416       H  0.22605801  0.99136249  0.62281403     0.15000
H1417       H  0.31269156  0.05210086  0.59045100     0.15000
C1418       C  0.32354856  0.99451342  0.58236158    -0.24000
H1419       H  0.19705017  0.03258562  0.63373396     0.05200
H1420       H  0.20454097  0.06387459  0.60985751     0.08400
H1421       H  0.21857744  0.06278465  0.64876141     0.08400
H1422       H  0.31742269  0.97940782  0.56337023     0.08400
H1423       H  0.33611115  0.98220669  0.60010828     0.08400
H1424       H  0.33890325  0.01155791  0.57300343     0.05200
C1425       C  0.16333148  0.81765658  0.60483500    -0.20600
C1426       C  0.17081914  0.78954971  0.61618239    -0.07200
C1427       C  0.20077670  0.78432022  0.62556209     0.13700
C1428       C  0.22181920  0.80733685  0.62409187    -0.20700
C1429       C  0.21420646  0.83560908  0.61339416    -0.07200
C1430       C  0.18449597  0.84064873  0.60317383     0.13700
C1431       C  0.17463680  0.87001280  0.59043683    -0.24000
H1432       H  0.14062544  0.82180216  0.59730789     0.15000
H1433       H  0.24448449  0.80316874  0.63173180     0.15000
C1434       C  0.21111041  0.75473276  0.63736169    -0.24000
H1435       H  0.15086683  0.86961524  0.58298457     0.05200
H1436       H  0.18845278  0.87575807  0.57023795     0.08400
H1437       H  0.17682001  0.88741620  0.60814928     0.08400
H1438       H  0.20779855  0.73758345  0.61955185     0.08400
H1439       H  0.19848354  0.74882678  0.65829349     0.08400
H1440       H  0.23526446  0.75482967  0.64341004     0.05200
C1441       C  0.96403723  0.75726293  0.88782729    -0.20600
C1442       C  0.94899900  0.73129048  0.89629788    -0.07200
C1443       C  0.96586409  0.70697083  0.90712864     0.13700
C1444       C  0.99721686  0.70814918  0.90593414    -0.20700
C1445       C  0.01233295  0.73311581  0.89474776    -0.07200
C1446       C  0.99551681  0.75855318  0.88699592     0.13700
C1447       C  0.01033929  0.78664402  0.87649094    -0.24000
H1448       H  0.95113292  0.77612541  0.88026275     0.15000
H1449       H  0.01002086  0.68904501  0.91307174     0.15000
C1450       C  0.95116438  0.67979202  0.92031529    -0.24000
H1451       H  0.99369931  0.80411696  0.87113977     0.05200
H1452       H  0.02358044  0.78238571  0.85552639     0.08400
H1453       H  0.02522526  0.79521425  0.89478052     0.08400
H1454       H  0.93866973  0.66765307  0.90239065     0.08400
H1455       H  0.93568155  0.68625360  0.93897798     0.08400
H1456       H  0.96789404  0.66425361  0.93002479     0.05200
C1457       C  0.07651600  0.72306240  0.76603466    -0.20600
C1458       C  0.10158671  0.71180953  0.78152279    -0.07200
C1459       C  0.12578991  0.70054201  0.76421581     0.13700
C1460       C  0.12460217  0.70179448  0.73207267    -0.20700
C1461       C  0.10014290  0.71448981  0.71669998    -0.07200
C1462       C  0.07546161  0.72472142  0.73405249     0.13700
C1463       C  0.04773141  0.73729984  0.71924767    -0.24000
H1464       H  0.05771464  0.73131687  0.77914610     0.15000
H1465       H  0.14345090  0.69385097  0.71889692     0.15000
C1466       C  0.15349176  0.68842104  0.77931163    -0.24000
H1467       H  0.02999736  0.74220398  0.73626787     0.05200
H1468       H  0.03842523  0.72121205  0.70261585     0.08400
H1469       H  0.05313401  0.75833233  0.70749925     0.08400
H1470       H  0.14762535  0.66879342  0.79324430     0.08400
H1471       H  0.16377481  0.70559701  0.79409103     0.08400
H1472       H  0.17051313  0.68147771  0.76230899     0.05200
C1473       C  0.29717083  0.00025976  0.89488023    -0.20600
C1474       C  0.27073025  0.98431824  0.88969714    -0.07200
C1475       C  0.24339832  0.00005822  0.88717938     0.13700
C1476       C  0.24380893  0.03127123  0.88747287    -0.20700
C1477       C  0.27076858  0.04714990  0.89040993    -0.07200
C1478       C  0.29766097  0.03116975  0.89546375     0.13700
C1479       C  0.32728067  0.04616778  0.90153742    -0.24000
H1480       H  0.31804970  0.98837787  0.89781899     0.15000
H1481       H  0.22307183  0.04330517  0.88429040     0.15000
C1482       C  0.21392492  0.98433306  0.88327953    -0.24000
H1483       H  0.34509317  0.03007551  0.90757880     0.05200
H1484       H  0.32504695  0.06172903  0.92099471     0.08400
H1485       H  0.33495695  0.05808989  0.88085498     0.08400
H1486       H  0.20981212  0.96974915  0.90321478     0.08400
H1487       H  0.21421005  0.97097389  0.86203570     0.08400
H1488       H  0.19493672  0.00008958  0.88167445     0.05200
C1489       C  0.30534894  0.87688388  0.72802122    -0.20600
C1490       C  0.29013881  0.90018737  0.71347563    -0.07200
C1491       C  0.27733059  0.92275503  0.73173130     0.13700
C1492       C  0.27845672  0.92039124  0.76360391    -0.20700
C1493       C  0.29225793  0.89640054  0.77821758    -0.07200
C1494       C  0.30667511  0.87473351  0.76014085     0.13700
C1495       C  0.32270218  0.84891321  0.77435721    -0.24000
H1496       H  0.31557728  0.85982014  0.71420738     0.15000
H1497       H  0.26809019  0.93749080  0.77731574     0.15000
C1498       C  0.26274625  0.94979791  0.71811845    -0.24000
H1499       H  0.33213974  0.83386083  0.75681413     0.05200
H1500       H  0.30690706  0.83597927  0.78862336     0.08400
H1501       H  0.34153395  0.85698206  0.78867197     0.08400
H1502       H  0.24207812  0.94353117  0.70564326     0.08400
H1503       H  0.27860746  0.96100220  0.70242550     0.08400
H1504       H  0.25617002  0.96603114  0.73591220     0.05200
C1505       C  0.18897771  0.83652668  0.89033341    -0.20600
C1506       C  0.21750852  0.82861137  0.87960469    -0.07200
C1507       C  0.22234668  0.79908084  0.86996122     0.13700
C1508       C  0.19864886  0.77870430  0.87122351    -0.20700
C1509       C  0.16990656  0.78679456  0.88122836    -0.07200
C1510       C  0.16511629  0.81628087  0.89102473     0.13700
C1511       C  0.13498440  0.82699218  0.90181946    -0.24000
H1512       H  0.18504800  0.85907449  0.89778606     0.15000
H1513       H  0.20257734  0.75620215  0.86365037     0.15000
C1514       C  0.25205869  0.78871295  0.85764235    -0.24000
H1515       H  0.13556824  0.85061196  0.90868153     0.05200
H1516       H  0.12772822  0.81400656  0.92197779     0.08400
H1517       H  0.11828819  0.82483646  0.88315565     0.08400
H1518       H  0.26968321  0.79129928  0.87532459     0.08400
H1519       H  0.25802183  0.80159074  0.83695569     0.08400
H1520       H  0.25149538  0.76503809  0.85099638     0.05200
C1521       C  0.14643089  0.50622532  0.96928119    -0.20600
C1522       C  0.14530811  0.49070402  0.99688241    -0.07200
C1523       C  0.14700901  0.50636957  0.02466252     0.13700
C1524       C  0.14075955  0.53809081  0.52780996    -0.20700
C1525       C  0.14214771  0.55480351  0.50081639    -0.07200
C1526       C  0.14609870  0.53722978  0.96862535     0.13700
C1527       C  0.15178798  0.55674514  0.44338605    -0.24000
H1528       H  0.14525287  0.49395266  0.94804773     0.15000
H1529       H  0.13676193  0.54925603  0.54931511     0.15000
C1530       C  0.14655742  0.49048457  0.05488643    -0.24000
H1531       H  0.14860351  0.53638638  0.91894367     0.05200
H1532       H  0.16444626  0.56847994  0.93668497     0.08400
H1533       H  0.13101788  0.56913169  0.43797082     0.08400
H1534       H  0.16618190  0.47553528  0.05649190     0.08400
H1535       H  0.11865339  0.47616226  0.55595068     0.08400
H1536       H  0.13701358  0.50523095  0.57669123     0.05200
C1537       C  0.96414552  0.66027896  0.00060131    -0.20600
C1538       C  0.94794408  0.63599612  0.49583301    -0.07200
C1539       C  0.96503855  0.61000240  0.49144876     0.13700
C1540       C  0.99638974  0.61179312  0.49209108    -0.20700
C1541       C  0.01221630  0.63545973  0.99672811    -0.07200
C1542       C  0.99540070  0.66180563  0.00024509     0.13700
C1543       C  0.00979996  0.69176616  0.00396368    -0.24000
H1544       H  0.95147861  0.68048240  0.00357926     0.15000
H1545       H  0.00939394  0.59179641  0.48911551     0.15000
C1546       C  0.95074858  0.58023322  0.48629010    -0.24000
H1547       H  0.99295647  0.70955922  0.00699017     0.05200
H1548       H  0.02300757  0.69726930  0.98327232     0.08400
H1549       H  0.02441266  0.69190850  0.02448400     0.08400
H1550       H  0.93691256  0.58076614  0.46522562     0.08400
H1551       H  0.93664316  0.57425012  0.50619205     0.08400
H1552       H  0.96770582  0.56252046  0.48338855     0.05200
C1553       C  0.96717589  0.42764887  0.52185415    -0.20600
C1554       C  0.95197593  0.42121961  0.99665433    -0.07200
C1555       C  0.96950855  0.41630713  0.97016711     0.13700
C1556       C  0.00076458  0.41720308  0.97243908    -0.20700
C1557       C  0.01598244  0.42380016  0.49753517    -0.07200
C1558       C  0.99853247  0.42839496  0.52409077     0.13700
C1559       C  0.01250069  0.43382526  0.55495196    -0.24000
H1560       H  0.95392944  0.43058940  0.54238858     0.15000
H1561       H  0.01397918  0.41299731  0.95213098     0.15000
C1562       C  0.95588089  0.40874911  0.93958430    -0.24000
H1563       H  0.99538583  0.43855106  0.57265648     0.05200
H1564       H  0.02769605  0.45320394  0.55379502     0.08400
H1565       H  0.02440439  0.41321822  0.06539821     0.08400
H1566       H  0.94132549  0.43265433  0.43004126     0.08400
H1567       H  0.94247760  0.38816652  0.94146061     0.08400
H1568       H  0.97319275  0.40492930  0.92182029     0.05200
C1569       C  0.81993590  0.50813069  0.96889904    -0.20600
C1570       C  0.82029442  0.49285029  0.49298685    -0.07200
C1571       C  0.81504316  0.50746850  0.52095146     0.13700
C1572       C  0.81352338  0.53844049  0.52139244    -0.20700
C1573       C  0.81849394  0.55390598  0.99802896    -0.07200
C1574       C  0.81909240  0.53915899  0.96953122     0.13700
C1575       C  0.82199522  0.55584905  0.93991101    -0.24000
H1576       H  0.82251482  0.49681559  0.94724247     0.15000
H1577       H  0.81199477  0.54982621  0.54310264     0.15000
C1578       C  0.81389855  0.49081053  0.55069459    -0.24000
H1579       H  0.82268308  0.54074973  0.91993177     0.05200
H1580       H  0.84301374  0.56896795  0.93992971     0.08400
H1581       H  0.80254021  0.57081208  0.93696653     0.08400
H1582       H  0.83534092  0.47896210  0.55449895     0.08400
H1583       H  0.79520945  0.47465690  0.55011270     0.08400
H1584       H  0.81020169  0.50580261  0.57040353     0.05200
C1585       C  0.46526085  0.17689044  0.52840957    -0.20600
C1586       C  0.44890613  0.17782212  0.50100704    -0.07200
C1587       C  0.46441998  0.17608100  0.96998476     0.13700
C1588       C  0.49587399  0.17486143  0.96997119    -0.20700
C1589       C  0.51243939  0.17519427  0.99726924    -0.07200
C1590       C  0.49669012  0.17572765  0.52865195     0.13700
C1591       C  0.51245368  0.17172987  0.55882688    -0.24000
H1592       H  0.45326857  0.17495436  0.54981650     0.15000
H1593       H  0.50756835  0.17212494  0.94848883     0.15000
C1594       C  0.44806450  0.17457134  0.93990449    -0.24000
H1595       H  0.49651143  0.17151299  0.57825583     0.05200
H1596       H  0.52836572  0.19020341  0.56262205     0.08400
H1597       H  0.52467884  0.15037467  0.55904368     0.08400
H1598       H  0.43352049  0.19430039  0.93732130     0.08400
H1599       H  0.43424784  0.15421498  0.93879786     0.08400
H1600       H  0.46375431  0.17417195  0.92026674     0.05200
C1601       C  0.39443226  0.00364037  0.49960336    -0.20600
C1602       C  0.36761291  0.98817959  0.49462203    -0.07200
C1603       C  0.33996230  0.00311749  0.98881018     0.13700
C1604       C  0.34088599  0.03407032  0.98942237    -0.20700
C1605       C  0.36690347  0.04935769  0.99784756    -0.07200
C1606       C  0.39266155  0.03325452  0.00649149     0.13700
C1607       C  0.42111000  0.04844263  0.01638183    -0.24000
H1608       H  0.41503300  0.99138677  0.50296106     0.15000
H1609       H  0.32120927  0.04650314  0.98275175     0.15000
C1610       C  0.31141465  0.98955279  0.48224291    -0.24000
H1611       H  0.43847819  0.03237677  0.02369950     0.05200
H1612       H  0.42399261  0.06387448  0.52562284     0.08400
H1613       H  0.43050680  0.06136273  0.99712399     0.08400
H1614       H  0.30494581  0.97458941  0.50118387     0.08400
H1615       H  0.31563231  0.97496611  0.95772697     0.08400
H1616       H  0.29379270  0.00480004  0.97245930     0.05200
C1617       C  0.57155894  0.00046107  0.99596266    -0.20600
C1618       C  0.59862558  0.98554532  0.00126519    -0.07200
C1619       C  0.62450629  0.00327264  0.50918746     0.13700
C1620       C  0.62262388  0.03416394  0.50884525    -0.20700
C1621       C  0.59568915  0.04879232  0.50225260    -0.07200
C1622       C  0.57008889  0.03137882  0.99553052     0.13700
C1623       C  0.54039955  0.04591311  0.98898085    -0.24000
H1624       H  0.55123348  0.98783854  0.99226106     0.15000
H1625       H  0.64251300  0.04704118  0.51370022     0.15000
C1626       C  0.65462170  0.98943399  0.51557901    -0.24000
H1627       H  0.52257817  0.02943910  0.98412743     0.05200
H1628       H  0.54242086  0.06049037  0.96870590     0.08400
H1629       H  0.53185485  0.05947530  0.50632129     0.08400
H1630       H  0.66102142  0.97355994  0.99085300     0.08400
H1631       H  0.65351975  0.97549518  0.53632248     0.08400
H1632       H  0.67227240  0.00630560  0.51951099     0.05200
C1633       C  0.49818440  0.85277495  0.52800638    -0.20600
C1634       C  0.51545857  0.85450859  0.50132279    -0.07200
C1635       C  0.49961514  0.85312105  0.97330889     0.13700
C1636       C  0.46823371  0.85359639  0.97249067    -0.20700
C1637       C  0.45135463  0.85541394  0.99938384    -0.07200
C1638       C  0.46678835  0.85338922  0.52677265     0.13700
C1639       C  0.44927996  0.85399396  0.55613491    -0.24000
H1640       H  0.50932467  0.85342762  0.55000643     0.15000
H1641       H  0.45684000  0.85505088  0.95066435     0.15000
C1642       C  0.51663868  0.85401386  0.94363958    -0.24000
H1643       H  0.46412335  0.85215177  0.57640932     0.05200
H1644       H  0.43337810  0.83515224  0.55661837     0.08400
H1645       H  0.43667768  0.87504346  0.55801635     0.08400
H1646       H  0.53204523  0.83482927  0.94234666     0.08400
H1647       H  0.52967789  0.87484236  0.94202789     0.08400
H1648       H  0.50142514  0.85299032  0.92359233     0.05200
loop_ 
_geom_bond_atom_site_label_1 
_geom_bond_atom_site_label_2 
_geom_bond_distance 
_geom_bond_site_symmetry_2 
_ccdc_geom_bond_type 
In1           O3   2.255       .  S
In1           O6   2.264       .  S
In1           O8   2.239       .  S
In1          O10   2.232       .  S
In1         O828   2.236       .  S
In1         O836   2.230       .  S
In1         O833   2.244       .  S
In1         O837   2.238       .  S
C2            O8   1.262       .  A
C2           O10   1.263       .  A
C2          C223   1.461       .  S
O3           C11   1.260       .  A
O4         In825   2.232       .  S
O4          C835   1.254       .  A
C5           O12   1.255       .  A
C5          O830   1.261   1_554  A
C5          C810   1.477       .  S
O6          C829   1.260       .  A
C7            O9   1.257       .  A
C7           O13   1.260       .  A
C7          C258   1.454       .  S
O9         In825   2.237       .  S
C11         O828   1.254       .  A
C11         C794   1.484       .  S
O12        In825   2.228       .  S
O13        In825   2.235       .  S
In14         O17   2.229       .  S
In14         O25   2.233       .  S
In14         O22   2.244       .  S
In14         O26   2.245       .  S
In14        O840   2.258       .  S
In14        O843   2.275       .  S
In14        O845   2.258       .  S
In14        O847   2.248       .  S
C15          O21   1.261       .  A
C15          O23   1.262       .  A
C15         C137   1.467       .  S
O16        In838   2.260   1_554  S
O16          C24   1.261   1_554  A
O17         C848   1.255       .  A
C18          O25   1.256       .  A
C18         O843   1.260       .  A
C18         C813   1.477       .  S
O19        In838   2.276   1_554  S
O19         C842   1.260   1_554  A
C20          O22   1.259       .  A
C20          O26   1.262       .  A
C20         C115   1.463       .  S
O21        In838   2.250   1_554  S
O23        In838   2.245   1_554  S
C24         O841   1.254       .  A
C24         C778   1.486       .  S
In27         O29   2.248       .  S
In27         O32   2.281       .  S
In27         O34   2.253       .  S
In27         O36   2.248       .  S
In27        O854   2.249       .  S
In27        O862   2.236       .  S
In27        O859   2.245       .  S
In27        O863   2.265       .  S
C28          O34   1.261       .  A
C28          O36   1.263       .  A
C28         C176   1.469       .  S
O29          C37   1.255       .  A
O30        In851   2.251   1_554  S
O30         C861   1.255   1_554  A
C31          O38   1.256       .  A
C31         O856   1.260   1_554  A
C31         C762   1.488   1_554  S
O32         C855   1.261       .  A
C33          O35   1.258       .  A
C33          O39   1.262       .  A
C33         C206   1.464       .  S
O35        In851   2.240   1_554  S
C37         O854   1.257       .  A
C37         C781   1.480       .  S
O38        In851   2.248   1_554  S
O39        In851   2.260   1_554  S
In40         O43   2.242       .  S
In40         O51   2.252       .  S
In40         O48   2.239       .  S
In40         O52   2.258       .  S
In40        O866   2.255       .  S
In40        O869   2.267       .  S
In40        O871   2.254       .  S
In40        O873   2.253       .  S
C41          O47   1.262       .  A
C41          O49   1.262       .  A
C41         C301   1.470       .  S
O42        In864   2.251   1_554  S
O42          C50   1.257   1_554  A
O43         C874   1.256       .  A
C44          O51   1.256       .  A
C44         O869   1.259       .  A
C44         C765   1.489       .  S
O45        In864   2.273   1_554  S
O45         C868   1.260   1_554  A
C46          O48   1.257       .  A
C46          O52   1.262       .  A
C46         C284   1.463       .  S
O47        In864   2.252   1_554  S
O49        In864   2.255   1_554  S
C50         O867   1.256       .  A
C50         C797   1.479   1_556  S
In53         O55   2.256       .  S
In53         O58   2.270       .  S
In53         O60   2.280       .  S
In53         O62   2.214       .  S
In53        O880   2.264       .  S
In53        O888   2.233       .  S
In53        O885   2.257       .  S
In53        O889   2.256       .  S
C54          O60   1.263       .  A
C54          O62   1.258       .  A
C54         C262   1.464       .  S
O55          C63   1.255       .  A
O56        In877   2.262   1_554  S
O56         C887   1.258   1_554  A
C57          O64   1.257       .  A
C57         O882   1.262   1_556  A
C57         C746   1.479       .  S
O58         C881   1.262       .  A
C59          O61   1.260       .  A
C59          O65   1.261       .  A
C59         C297   1.472       .  S
O61        In877   2.256   1_554  S
C63         O880   1.258       .  A
C63         C730   1.490       .  S
O64        In877   2.233       .  S
O65        In877   2.261   1_554  S
In66         O69   2.235       .  S
In66         O77   2.272       .  S
In66         O74   2.239       .  S
In66         O78   2.247       .  S
In66        O892   2.252       .  S
In66        O895   2.237       .  S
In66        O897   2.246       .  S
In66        O899   2.255       .  S
C67          O73   1.259       .  A
C67          O75   1.259       .  A
C67         C241   1.469       .  S
O68        In890   2.254   1_556  S
O68          C76   1.256       .  A
O69         C900   1.257       .  A
C70          O77   1.259       .  A
C70         O895   1.256       .  A
C70         C749   1.481       .  S
O71        In890   2.234       .  S
O71         C894   1.256       .  A
C72          O74   1.261       .  A
C72          O78   1.264       .  A
C72         C219   1.464       .  S
O73        In890   2.267       .  S
O75        In890   2.253       .  S
C76         O893   1.257   1_556  A
C76         C714   1.482       .  S
In79         O81   2.239       .  S
In79         O84   2.238       .  S
In79         O86   2.249       .  S
In79         O88   2.240       .  S
In79        O906   2.257       .  S
In79        O914   2.272       .  S
In79        O911   2.254       .  S
In79        O915   2.254       .  S
C80          O86   1.262       .  A
C80          O88   1.263       .  A
C80         C124   1.466       .  S
O81          C89   1.254       .  A
O82        In903   2.269       .  S
O82         C913   1.260       .  A
C83          O90   1.256       .  A
C83         O908   1.257   1_556  A
C83         C701   1.489       .  S
O84         C907   1.257       .  A
C85          O87   1.258       .  A
C85          O91   1.263       .  A
C85         C154   1.467       .  S
O87        In903   2.244   1_554  S
C89         O906   1.258       .  A
C89         C717   1.483       .  S
O90        In903   2.260       .  S
O91        In903   2.261   1_554  S
In92         O95   2.251       .  S
In92        O103   2.274       .  S
In92        O100   2.281       .  S
In92        O104   2.220       .  S
In92        O918   2.247       .  S
In92        O921   2.237       .  S
In92        O923   2.251       .  S
In92        O925   2.254       .  S
C93          O99   1.260       .  A
C93         O101   1.261       .  A
C93         C189   1.466       .  S
O94        In916   2.234       .  S
O94         C102   1.257   1_556  A
O95         C926   1.257       .  A
C96         O103   1.262       .  A
C96         O921   1.256       .  A
C96         C698   1.479       .  S
O97        In916   2.217       .  S
O97         C920   1.255       .  A
C98         O100   1.266       .  A
C98         O104   1.258       .  A
C98         C167   1.469       .  S
O99        In916   2.255   1_554  S
O101       In916   2.246   1_554  S
C102        O919   1.258       .  A
C102        C733   1.484       .  S
In105       O107   2.240       .  S
In105       O108   2.259       .  S
In105       O116   2.237       .  S
In105       O110   2.248       .  S
In105       O112   2.270       .  S
In105       O113   2.272       .  S
In105       O114   2.224       .  S
In105       O117   2.230       .  S
C106        O112   1.264       .  A
C106        O114   1.260       .  A
C106        C650   1.489       .  S
O107        C115   1.259       .  A
O108        C115   1.262       .  A
C109        O116   1.262       .  A
C109        O110   1.265       .  A
C109        C682   1.493       .  S
C111        O113   1.264       .  A
C111        O117   1.258       .  A
C111        C669   1.487       .  S
In118       O120   2.235       .  S
In118       O121   2.270       .  S
In118       O129   2.245       .  S
In118       O123   2.245       .  S
In118       O125   2.265       .  S
In118       O126   2.261       .  S
In118       O127   2.223       .  S
In118       O130   2.241       .  S
C119        O125   1.264       .  A
C119        O127   1.260       .  A
C119        C621   1.484       .  S
O120        C128   1.259       .  A
O121        C128   1.264       .  A
C122        O129   1.264       .  A
C122        O123   1.263       .  A
C122        C685   1.493       .  S
C124        O126   1.262       .  A
C124        O130   1.259       .  A
C128        C634   1.490       .  S
In131       O133   2.233       .  S
In131       O134   2.273       .  S
In131       O142   2.237       .  S
In131       O136   2.252       .  S
In131       O138   2.263       .  S
In131       O139   2.259       .  S
In131       O140   2.227       .  S
In131       O143   2.245       .  S
C132        O138   1.265       .  A
C132        O140   1.258       .  A
C132        C586   1.482       .  S
O133        C141   1.258       .  A
O134        C141   1.264       .  A
C135        O142   1.263       .  A
C135        O136   1.264       .  A
C135        C605   1.493       .  S
C137        O139   1.262       .  A
C137        O143   1.260       .  A
C141        C666   1.489       .  S
In144       O146   2.249       .  S
In144       O147   2.257       .  S
In144       O155   2.233       .  S
In144       O149   2.253       .  S
In144       O151   2.255       .  S
In144       O152   2.276       .  S
In144       O153   2.232       .  S
In144       O156   2.232       .  S
C145        O151   1.264       .  A
C145        O153   1.260       .  A
C145        C570   1.483       .  S
O146        C154   1.259       .  A
O147        C154   1.263       .  A
C148        O155   1.262       .  A
C148        O149   1.265       .  A
C148        C602   1.494       .  S
C150        O152   1.266       .  A
C150        O156   1.258       .  A
C150        C637   1.491       .  S
In157       O159   2.228       .  S
In157       O160   2.274       .  S
In157       O168   2.242       .  S
In157       O162   2.257       .  S
In157       O164   2.252       .  S
In157       O165   2.279       .  S
In157       O166   2.238       .  S
In157       O169   2.218       .  S
C158        O164   1.265       .  A
C158        O166   1.263       .  A
C158        C522   1.494       .  S
O159        C167   1.260       .  A
O160        C167   1.264       .  A
C161        O168   1.262       .  A
C161        O162   1.261       .  A
C161        C557   1.493       .  S
C163        O165   1.266       .  A
C163        O169   1.260       .  A
C163        C538   1.491       .  S
In170       O172   2.231       .  S
In170       O173   2.275       .  S
In170       O181   2.219       .  S
In170       O175   2.259       .  S
In170       O177   2.278       .  S
In170       O178   2.267       .  S
In170       O179   2.212       .  S
In170       O182   2.244       .  S
C171        O177   1.267       .  A
C171        O179   1.259       .  A
C171        C653   1.489       .  S
O172        C180   1.259       .  A
O173        C180   1.265       .  A
C174        O181   1.261       .  A
C174        O175   1.267       .  A
C174        C554   1.490       .  S
C176        O178   1.263       .  A
C176        O182   1.259       .  A
C180        C506   1.486       .  S
In183       O185   2.208       .  S
In183       O186   2.295       .  S
In183       O194   2.236       .  S
In183       O188   2.236       .  S
In183       O190   2.251       .  S
In183       O191   2.260       .  S
In183       O192   2.233       .  S
In183       O195   2.231       .  S
C184        O190   1.263       .  A
C184        O192   1.261       .  A
C184        C474   1.482       .  S
O185        C193   1.255       .  A
O186        C193   1.267       .  A
C187        O194   1.263       .  A
C187        O188   1.263       .  A
C187        C490   1.490       .  S
C189        O191   1.265       .  A
C189        O195   1.259       .  A
C193        C541   1.496       .  S
In196       O198   2.247       .  S
In196       O199   2.251       .  S
In196       O207   2.229       .  S
In196       O201   2.249       .  S
In196       O203   2.262       .  S
In196       O204   2.273       .  S
In196       O205   2.228       .  S
In196       O208   2.231       .  S
C197        O203   1.265       .  A
C197        O205   1.261       .  A
C197        C589   1.484       .  S
O198        C206   1.260       .  A
O199        C206   1.262       .  A
C200        O207   1.262       .  A
C200        O201   1.264       .  A
C200        C493   1.490       .  S
C202        O204   1.264       .  A
C202        O208   1.258       .  A
C202        C509   1.485       .  S
In209       O211   2.241       .  S
In209       O212   2.250       .  S
In209       O220   2.237       .  S
In209       O214   2.239       .  S
In209       O216   2.262       .  S
In209       O217   2.274       .  S
In209       O218   2.225       .  S
In209       O221   2.228       .  S
C210        O216   1.265       .  A
C210        O218   1.258       .  A
C210        C618   1.483       .  S
O211        C219   1.260       .  A
O212        C219   1.263       .  A
C213        O220   1.265       .  A
C213        O214   1.264       .  A
C213        C461   1.491       .  S
C215        O217   1.266       .  A
C215        O221   1.257       .  A
C215        C445   1.495       .  S
In222       O224   2.233       .  S
In222       O225   2.249       .  S
In222       O233   2.224       .  S
In222       O227   2.271       .  S
In222       O229   2.257       .  S
In222       O230   2.261       .  S
In222       O231   2.232       .  S
In222       O234   2.231       .  S
C223        O229   1.263       .  A
C223        O231   1.259       .  A
O224        C232   1.261       .  A
O225        C232   1.265       .  A
C226        O233   1.259       .  A
C226        O227   1.264       .  A
C226        C429   1.488       .  S
C228        O230   1.265       .  A
C228        O234   1.260       .  A
C228        C410   1.482       .  S
C232        C458   1.490       .  S
In235       O237   2.236       .  S
In235       O238   2.264       .  S
In235       O246   2.228       .  S
In235       O240   2.244       .  S
In235       O242   2.255       .  S
In235       O243   2.264       .  S
In235       O244   2.226       .  S
In235       O247   2.235       .  S
C236        O242   1.265       .  A
C236        O244   1.259       .  A
C236        C573   1.482       .  S
O237        C245   1.261       .  A
O238        C245   1.265       .  A
C239        O246   1.262       .  A
C239        O240   1.265       .  A
C239        C394   1.488       .  S
C241        O243   1.265       .  A
C241        O247   1.260       .  A
C245        C442   1.495       .  S
In248       O250   2.222       .  S
In248       O251   2.247       .  S
In248       O259   2.230       .  S
In248       O253   2.230       .  S
In248       O255   2.263       .  S
In248       O256   2.267       .  S
In248       O257   2.235       .  S
In248       O260   2.215       .  S
C249        O255   1.263       .  A
C249        O257   1.259       .  A
C249        C378   1.488       .  S
O250        C258   1.257       .  A
O251        C258   1.262       .  A
C252        O259   1.264       .  A
C252        O253   1.263       .  A
C252        C397   1.485       .  S
C254        O256   1.264       .  A
C254        O260   1.259       .  A
C254        C426   1.483       .  S
In261       O263   2.238       .  S
In261       O264   2.252       .  S
In261       O272   2.212       .  S
In261       O266   2.282       .  S
In261       O268   2.276       .  S
In261       O269   2.250       .  S
In261       O270   2.208       .  S
In261       O273   2.231       .  S
C262        O268   1.267       .  A
C262        O270   1.258       .  A
O263        C271   1.263       .  A
O264        C271   1.262       .  A
C265        O272   1.260       .  A
C265        O266   1.267       .  A
C265        C346   1.490       .  S
C267        O269   1.266       .  A
C267        O273   1.262       .  A
C267        C525   1.492       .  S
C271        C362   1.491       .  S
In274       O276   2.238       .  S
In274       O277   2.255       .  S
In274       O285   2.226       .  S
In274       O279   2.258       .  S
In274       O281   2.260       .  S
In274       O282   2.280       .  S
In274       O283   2.235       .  S
In274       O286   2.229       .  S
C275        O281   1.264       .  A
C275        O283   1.259       .  A
C275        C413   1.482       .  S
O276        C284   1.259       .  A
O277        C284   1.264       .  A
C278        O285   1.262       .  A
C278        O279   1.266       .  A
C278        C365   1.494       .  S
C280        O282   1.266       .  A
C280        O286   1.259       .  A
C280        C330   1.489       .  S
In287       O289   2.252       .  S
In287       O290   2.260       .  S
In287       O298   2.241       .  S
In287       O292   2.245       .  S
In287       O294   2.268       .  S
In287       O295   2.283       .  S
In287       O296   2.219       .  S
In287       O299   2.220       .  S
C288        O294   1.265       .  A
C288        O296   1.259       .  A
C288        C477   1.484       .  S
O289        C297   1.261       .  A
O290        C297   1.263       .  A
C291        O298   1.264       .  A
C291        O292   1.263       .  A
C291        C314   1.492       .  S
C293        O295   1.266       .  A
C293        O299   1.257       .  A
C293        C349   1.494       .  S
In300       O302   2.236       .  S
In300       O303   2.257       .  S
In300       O311   2.240       .  S
In300       O305   2.265       .  S
In300       O307   2.257       .  S
In300       O308   2.274       .  S
In300       O309   2.252       .  S
In300       O312   2.216       .  S
C301        O307   1.262       .  A
C301        O309   1.261       .  A
O302        C310   1.261       .  A
O303        C310   1.266       .  A
C304        O311   1.261       .  A
C304        O305   1.265       .  A
C304        C333   1.491       .  S
C306        O308   1.267       .  A
C306        O312   1.260       .  A
C306        C381   1.489       .  S
C310        C317   1.494       .  S
C313        C314   1.405       .  A
C313        C318   1.405       .  A
C313        H320   1.086       .  S
C314        C315   1.418       .  A
C315        C316   1.407       .  A
C315        C322   1.508       .  S
C316        C317   1.406       .  A
C316        H321   1.086       .  S
C317        C318   1.421       .  A
C318        C319   1.509       .  S
C319        H323   1.111       .  S
C319        H324   1.110       .  S
C319        H325   1.110       .  S
C322        H326   1.110       .  S
C322        H327   1.110       .  S
C322        H328   1.111       .  S
C329        C330   1.405       .  A
C329        C334   1.412       .  A
C329        H336   1.084       .  S
C330        C331   1.416       .  A
C331        C332   1.404       .  A
C331        C338   1.509       .  S
C332        C333   1.404       .  A
C332        H337   1.084       .  S
C333        C334   1.418       .  A
C334        C335   1.506       .  S
C335        H339   1.111       .  S
C335        H340   1.110       .  S
C335        H341   1.110       .  S
C338        H342   1.111       .  S
C338        H343   1.108       .  S
C338        H344   1.111       .  S
C345        C346   1.403       .  A
C345        C350   1.400       .  A
C345        H352   1.085       .  S
C346        C347   1.416       .  A
C347        C348   1.413       .  A
C347        C354   1.505       .  S
C348        C349   1.409       .  A
C348        H353   1.083       .  S
C349        C350   1.420       .  A
C350        C351   1.510       .  S
C351        H355   1.111       .  S
C351        H356   1.110       .  S
C351        H357   1.110       .  S
C354        H358   1.110       .  S
C354        H359   1.111       .  S
C354        H360   1.111       .  S
C361        C362   1.403       .  A
C361        C366   1.402       .  A
C361        H368   1.086       .  S
C362        C363   1.419       .  A
C363        C364   1.409       .  A
C363        C370   1.508       .  S
C364        C365   1.408       .  A
C364        H369   1.087       .  S
C365        C366   1.420       .  A
C366        C367   1.509       .  S
C367        H371   1.111       .  S
C367        H372   1.110       .  S
C367        H373   1.110       .  S
C370        H374   1.110       .  S
C370        H375   1.110       .  S
C370        H376   1.111       .  S
C377        C378   1.407   1_545  A
C377        C382   1.409       .  A
C377        H384   1.084   1_545  S
C378        C379   1.417   1_565  A
C379        C380   1.402       .  A
C379        C386   1.510   1_545  S
C380        C381   1.406       .  A
C380        H385   1.084       .  S
C381        C382   1.416       .  A
C382        C383   1.506       .  S
C383        H387   1.111       .  S
C383        H388   1.110       .  S
C383        H389   1.110       .  S
C386        H390   1.109       .  S
C386        H391   1.108       .  S
C386        H392   1.111   1_565  S
C393        C394   1.405       .  A
C393        C398   1.404       .  A
C393        H400   1.083       .  S
C394        C395   1.418       .  A
C395        C396   1.403       .  A
C395        C402   1.509       .  S
C396        C397   1.404       .  A
C396        H401   1.083       .  S
C397        C398   1.417       .  A
C398        C399   1.508       .  S
C399        H403   1.110       .  S
C399        H404   1.110       .  S
C399        H405   1.110       .  S
C402        H406   1.110       .  S
C402        H407   1.111       .  S
C402        H408   1.111       .  S
C409        C410   1.404   1_545  A
C409        C414   1.407       .  A
C409        H416   1.084   1_545  S
C410        C411   1.416   1_565  A
C411        C412   1.404       .  A
C411        C418   1.509   1_545  S
C412        C413   1.404       .  A
C412        H417   1.084       .  S
C413        C414   1.414       .  A
C414        C415   1.506       .  S
C415        H419   1.111       .  S
C415        H420   1.109       .  S
C415        H421   1.110       .  S
C418        H422   1.110       .  S
C418        H423   1.109       .  S
C418        H424   1.111   1_565  S
C425        C426   1.406       .  A
C425        C430   1.410       .  A
C425        H432   1.084       .  S
C426        C427   1.415       .  A
C427        C428   1.400       .  A
C427        C434   1.510       .  S
C428        C429   1.404       .  A
C428        H433   1.085       .  S
C429        C430   1.417       .  A
C430        C431   1.506       .  S
C431        H435   1.111       .  S
C431        H436   1.110       .  S
C431        H437   1.110       .  S
C434        H438   1.111       .  S
C434        H439   1.109       .  S
C434        H440   1.111       .  S
C441        C442   1.406       .  A
C441        C446   1.405       .  A
C441        H448   1.084       .  S
C442        C443   1.418       .  A
C443        C444   1.409       .  A
C443        C450   1.506       .  S
C444        C445   1.406       .  A
C444        H449   1.083       .  S
C445        C446   1.421       .  A
C446        C447   1.510       .  S
C447        H451   1.111       .  S
C447        H452   1.111       .  S
C447        H453   1.110       .  S
C450        H454   1.110       .  S
C450        H455   1.110       .  S
C450        H456   1.110       .  S
C457        C458   1.405       .  A
C457        C462   1.406       .  A
C457        H464   1.086       .  S
C458        C459   1.419       .  A
C459        C460   1.405       .  A
C459        C466   1.509       .  S
C460        C461   1.405       .  A
C460        H465   1.086       .  S
C461        C462   1.418       .  A
C462        C463   1.508       .  S
C463        H467   1.111       .  S
C463        H468   1.110       .  S
C463        H469   1.110       .  S
C466        H470   1.110       .  S
C466        H471   1.111       .  S
C466        H472   1.111       .  S
C473        C474   1.402       .  A
C473        C478   1.402   1_455  A
C473        H480   1.084       .  S
C474        C475   1.416   1_455  A
C475        C476   1.408       .  A
C475        C482   1.507   1_655  S
C476        C477   1.405       .  A
C476        H481   1.083       .  S
C477        C478   1.417       .  A
C478        C479   1.509       .  S
C479        H483   1.109       .  S
C479        H484   1.109       .  S
C479        H485   1.111       .  S
C482        H486   1.111       .  S
C482        H487   1.110       .  S
C482        H488   1.110   1_455  S
C489        C490   1.407       .  A
C489        C494   1.405       .  A
C489        H496   1.083       .  S
C490        C491   1.417       .  A
C491        C492   1.403       .  A
C491        C498   1.509       .  S
C492        C493   1.406       .  A
C492        H497   1.083       .  S
C493        C494   1.417       .  A
C494        C495   1.508       .  S
C495        H499   1.111       .  S
C495        H500   1.110       .  S
C495        H501   1.110       .  S
C498        H502   1.110       .  S
C498        H503   1.110       .  S
C498        H504   1.111       .  S
C505        C506   1.406       .  A
C505        C510   1.411       .  A
C505        H512   1.084       .  S
C506        C507   1.416       .  A
C507        C508   1.403       .  A
C507        C514   1.509       .  S
C508        C509   1.403       .  A
C508        H513   1.086       .  S
C509        C510   1.415       .  A
C510        C511   1.506       .  S
C511        H515   1.111       .  S
C511        H516   1.111       .  S
C511        H517   1.110       .  S
C514        H518   1.109       .  S
C514        H519   1.111       .  S
C514        H520   1.111       .  S
C521        C522   1.406   1_655  A
C521        C526   1.405       .  A
C521        H528   1.084   1_655  S
C522        C523   1.418   1_455  A
C523        C524   1.407       .  A
C523        C530   1.507   1_655  S
C524        C525   1.406       .  A
C524        H529   1.084       .  S
C525        C526   1.419       .  A
C526        C527   1.509       .  S
C527        H531   1.111       .  S
C527        H532   1.110       .  S
C527        H533   1.110       .  S
C530        H534   1.110       .  S
C530        H535   1.110       .  S
C530        H536   1.111   1_455  S
C537        C538   1.402       .  A
C537        C542   1.400       .  A
C537        H544   1.084       .  S
C538        C539   1.416       .  A
C539        C540   1.414       .  A
C539        C546   1.505       .  S
C540        C541   1.409       .  A
C540        H545   1.083       .  S
C541        C542   1.422       .  A
C542        C543   1.511       .  S
C543        H547   1.111       .  S
C543        H548   1.110       .  S
C543        H549   1.111       .  S
C546        H550   1.110       .  S
C546        H551   1.110       .  S
C546        H552   1.110       .  S
C553        C554   1.405       .  A
C553        C558   1.408       .  A
C553        H560   1.088       .  S
C554        C555   1.419       .  A
C555        C556   1.403       .  A
C555        C562   1.509       .  S
C556        C557   1.404       .  A
C556        H561   1.086       .  S
C557        C558   1.420       .  A
C558        C559   1.507       .  S
C559        H563   1.111       .  S
C559        H564   1.110       .  S
C559        H565   1.110       .  S
C562        H566   1.110       .  S
C562        H567   1.110       .  S
C562        H568   1.111       .  S
C569        C570   1.405   1_655  A
C569        C574   1.404       .  A
C569        H576   1.084   1_655  S
C570        C571   1.415   1_455  A
C571        C572   1.405       .  A
C571        C578   1.507   1_655  S
C572        C573   1.403       .  A
C572        H577   1.083       .  S
C573        C574   1.417       .  A
C574        C575   1.510       .  S
C575        H579   1.111       .  S
C575        H580   1.111       .  S
C575        H581   1.109       .  S
C578        H582   1.110       .  S
C578        H583   1.111       .  S
C578        H584   1.111   1_455  S
C585        C586   1.405   1_545  A
C585        C590   1.407       .  A
C585        H592   1.084   1_545  S
C586        C587   1.416   1_565  A
C587        C588   1.402       .  A
C587        C594   1.510   1_545  S
C588        C589   1.404       .  A
C588        H593   1.085       .  S
C589        C590   1.416       .  A
C590        C591   1.506       .  S
C591        H595   1.111       .  S
C591        H596   1.110       .  S
C591        H597   1.110       .  S
C594        H598   1.111       .  S
C594        H599   1.108       .  S
C594        H600   1.111   1_565  S
C601        C602   1.407       .  A
C601        C606   1.408       .  A
C601        H608   1.083       .  S
C602        C603   1.419       .  A
C603        C604   1.404       .  A
C603        C610   1.509       .  S
C604        C605   1.405       .  A
C604        H609   1.083       .  S
C605        C606   1.418       .  A
C606        C607   1.507       .  S
C607        H611   1.111       .  S
C607        H612   1.111       .  S
C607        H613   1.110       .  S
C610        H614   1.110       .  S
C610        H615   1.110       .  S
C610        H616   1.111       .  S
C617        C618   1.405       .  A
C617        C622   1.407       .  A
C617        H624   1.082       .  S
C618        C619   1.417       .  A
C619        C620   1.401       .  A
C619        C626   1.510       .  S
C620        C621   1.405   1_655  A
C620        H625   1.083   1_655  S
C621        C622   1.415   1_455  A
C622        C623   1.506   1_655  S
C623        H627   1.111   1_455  S
C623        H628   1.110       .  S
C623        H629   1.110       .  S
C626        H630   1.108       .  S
C626        H631   1.111       .  S
C626        H632   1.111       .  S
C633        C634   1.404       .  A
C633        C638   1.404       .  A
C633        H640   1.085       .  S
C634        C635   1.417       .  A
C635        C636   1.411       .  A
C635        C642   1.506       .  S
C636        C637   1.406       .  A
C636        H641   1.083       .  S
C637        C638   1.418       .  A
C638        C639   1.510       .  S
C639        H643   1.111       .  S
C639        H644   1.111       .  S
C639        H645   1.109       .  S
C642        H646   1.110       .  S
C642        H647   1.110       .  S
C642        H648   1.110       .  S
C649        C650   1.403   1_545  A
C649        C654   1.400       .  A
C649        H656   1.085   1_545  S
C650        C651   1.418   1_565  A
C651        C652   1.412       .  A
C651        C658   1.506   1_545  S
C652        C653   1.407       .  A
C652        H657   1.084       .  S
C653        C654   1.418       .  A
C654        C655   1.510       .  S
C655        H659   1.111       .  S
C655        H660   1.110       .  S
C655        H661   1.110       .  S
C658        H662   1.110       .  S
C658        H663   1.110       .  S
C658        H664   1.111   1_565  S
C665        C666   1.406       .  A
C665        C670   1.410       .  A
C665        H672   1.083       .  S
C666        C667   1.418       .  A
C667        C668   1.403       .  A
C667        C674   1.509       .  S
C668        C669   1.404       .  A
C668        H673   1.085       .  S
C669        C670   1.415       .  A
C670        C671   1.506       .  S
C671        H675   1.111       .  S
C671        H676   1.111       .  S
C671        H677   1.110       .  S
C674        H678   1.109       .  S
C674        H679   1.111       .  S
C674        H680   1.111       .  S
C681        C682   1.406       .  A
C681        C686   1.407       .  A
C681        H688   1.086       .  S
C682        C683   1.419       .  A
C683        C684   1.405       .  A
C683        C690   1.509       .  S
C684        C685   1.405       .  A
C684        H689   1.086       .  S
C685        C686   1.419       .  A
C686        C687   1.508       .  S
C687        H691   1.111       .  S
C687        H692   1.110       .  S
C687        H693   1.110       .  S
C690        H694   1.110       .  S
C690        H695   1.111       .  S
C690        H696   1.111       .  S
C697        C698   1.403       .  A
C697        C702   1.408       .  A
C697        H704   1.084       .  S
C698        C699   1.413       .  A
C699       C1524   1.405       .  A
C699        C706   1.508       .  S
C700        C701   1.408   1_554  A
C700       C1523   1.405       .  A
C700        H705   1.084       .  S
C701       C1526   1.420       .  A
C702       C1525   1.417       .  A
C702       C1527   1.506       .  S
C703       C1526   1.507       .  S
C703        H709   1.110       .  S
C703       H1531   1.111       .  S
C703       H1532   1.110       .  S
C706        H710   1.110       .  S
C706       H1535   1.110       .  S
C706       H1536   1.111       .  S
H707       C1527   1.111       .  S
H708       C1527   1.111       .  S
H711       C1530   1.111       .  S
H712       C1530   1.111       .  S
C713        C718   1.400       .  A
C713       C1538   1.404       .  A
C713        H720   1.084       .  S
C714        C715   1.417       .  A
C714       C1537   1.402   1_556  A
C715        C716   1.405       .  A
C715        C722   1.508       .  S
C716       C1541   1.405   1_655  A
C716        H721   1.084   1_655  S
C717        C718   1.418   1_455  A
C717       C1540   1.405   1_455  A
C718        C719   1.509   1_655  S
C719        H723   1.111   1_455  S
C719        H724   1.111       .  S
C719        H725   1.110       .  S
C722        H726   1.110       .  S
C722        H727   1.110   1_556  S
C722        H728   1.111       .  S
C729        C734   1.405       .  A
C729       C1554   1.406   1_554  A
C729        H736   1.086       .  S
C730        C731   1.419       .  A
C730       C1553   1.406       .  A
C731        C732   1.403   1_655  A
C731        C738   1.508       .  S
C732       C1557   1.405       .  A
C732        H737   1.085       .  S
C733        C734   1.416   1_455  A
C733       C1556   1.404   1_554  A
C734        C735   1.508   1_655  S
C735        H739   1.111   1_455  S
C735        H740   1.110       .  S
C735       H1565   1.110       .  S
C738        H743   1.110       .  S
C738        H744   1.111       .  S
C738       H1566   1.110       .  S
H741       C1559   1.110       .  S
H742       C1562   1.109       .  S
C745        C750   1.405       .  A
C745       C1570   1.403       .  A
C745        H752   1.084       .  S
C746        C747   1.413   1_556  A
C746       C1569   1.403       .  A
C747        C748   1.405       .  A
C747        C754   1.507       .  S
C748       C1573   1.404   1_554  A
C748        H753   1.084       .  S
C749        C750   1.416       .  A
C749       C1572   1.404       .  A
C750        C751   1.507       .  S
C751        H755   1.111       .  S
C751        H756   1.110       .  S
C751        H757   1.110       .  S
C754        H758   1.111       .  S
C754        H759   1.110       .  S
C754        H760   1.111       .  S
C761        C762   1.405   1_554  A
C761        C766   1.408       .  A
C761        H768   1.084       .  S
C762       C1587   1.416       .  A
C763        C764   1.409       .  A
C763       C1586   1.417       .  A
C763        C770   1.507       .  S
C764        C765   1.406       .  A
C764        H769   1.084       .  S
C765       C1590   1.416       .  A
C766       C1589   1.417   1_554  A
C766        C767   1.507       .  S
C767        H771   1.111       .  S
C767        H772   1.111       .  S
C767        H773   1.110       .  S
C770        H774   1.110       .  S
C770        H775   1.110       .  S
C770        H776   1.111       .  S
C777        C778   1.405   1_544  A
C777       C1606   1.403       .  A
C777        H784   1.085   1_545  S
C778       C1603   1.421   1_565  A
C779        C780   1.401       .  A
C779       C1602   1.419   1_545  A
C779       C1610   1.509   1_545  S
C780        C781   1.403       .  A
C780        H785   1.084       .  S
C781        C782   1.416       .  A
C782       C1601   1.403       .  A
C782        C783   1.508       .  S
C783        H787   1.111       .  S
C783        H789   1.110       .  S
C783       H1612   1.110       .  S
C786       C1603   1.509   1_565  S
C786        H790   1.110       .  S
C786       H1615   1.110       .  S
C786       H1616   1.111   1_565  S
H788       C1607   1.110       .  S
H791       C1610   1.111       .  S
H792       C1610   1.111   1_545  S
C793        C794   1.405   1_545  A
C793        C798   1.402       .  A
C793        H800   1.085   1_545  S
C794       C1619   1.420   1_565  A
C795        C796   1.402       .  A
C795       C1618   1.420   1_545  A
C795        C802   1.511   1_545  S
C796        C797   1.403       .  A
C796        H801   1.083       .  S
C797       C1622   1.415   1_554  A
C798       C1621   1.415       .  A
C798        C799   1.508       .  S
C799        H803   1.111       .  S
C799        H804   1.111       .  S
C799       H1629   1.109       .  S
C802        H807   1.107       .  S
C802        H808   1.111   1_565  S
C802       H1630   1.109   1_554  S
H805       C1623   1.109   1_554  S
H806       C1626   1.109       .  S
C809        C810   1.405       .  A
C809        C814   1.405       .  A
C809        H816   1.085       .  S
C810       C1635   1.414   1_554  A
C811        C812   1.404       .  A
C811       C1634   1.415       .  A
C811        C818   1.508       .  S
C812        C813   1.403       .  A
C812        H817   1.085       .  S
C813       C1638   1.413       .  A
C814       C1637   1.413   1_554  A
C814        C815   1.507       .  S
C815        H819   1.111       .  S
C815        H820   1.110       .  S
C815        H821   1.110       .  S
C818        H822   1.110       .  S
C818        H823   1.110       .  S
C818        H824   1.111       .  S
In825       O827   2.252   1_554  S
In825       O830   2.265   1_554  S
In825       O832   2.242   1_554  S
In825       O834   2.240   1_554  S
C826        O832   1.262       .  A
C826        O834   1.264       .  A
C826       C1047   1.465       .  S
O827        C835   1.260   1_556  A
C829        O836   1.257       .  A
C829       C1634   1.478       .  S
C831        O833   1.258       .  A
C831        O837   1.260       .  A
C831       C1082   1.458       .  S
C835       C1618   1.482       .  S
In838       O841   2.230       .  S
In838       O849   2.227       .  S
In838       O846   2.248       .  S
In838       O850   2.247       .  S
C839        O845   1.262       .  A
C839        O847   1.261       .  A
C839        C961   1.470       .  S
O840        C848   1.262       .  A
C842        O849   1.256       .  A
C842       C1637   1.476       .  S
C844        O846   1.259       .  A
C844        O850   1.262       .  A
C844        C939   1.465       .  S
C848       C1602   1.483       .  S
In851       O853   2.255       .  S
In851       O856   2.271       .  S
In851       O858   2.255       .  S
In851       O860   2.246       .  S
C852        O858   1.262       .  A
C852        O860   1.262       .  A
C852       C1000   1.468       .  S
O853        C861   1.256       .  A
C855        O862   1.256       .  A
C855       C1586   1.490       .  S
C857        O859   1.258       .  A
C857        O863   1.262       .  A
C857       C1030   1.467       .  S
C861       C1605   1.478       .  S
In864       O867   2.247       .  S
In864       O875   2.246       .  S
In864       O872   2.240       .  S
In864       O876   2.253       .  S
C865        O871   1.263       .  A
C865        O873   1.263       .  A
C865       C1125   1.470       .  S
O866        C874   1.257       .  A
C868        O875   1.256       .  A
C868       C1589   1.490       .  S
C870        O872   1.258       .  A
C870        O876   1.262       .  A
C870       C1108   1.462       .  S
C874       C1621   1.481       .  S
In877       O879   2.244       .  S
In877       O882   2.271   1_556  S
In877       O884   2.284       .  S
In877       O886   2.202       .  S
C878        O884   1.265       .  A
C878        O886   1.257       .  A
C878       C1086   1.462       .  S
O879        C887   1.255       .  A
C881        O888   1.257       .  A
C881       C1570   1.478       .  S
C883        O885   1.261       .  A
C883        O889   1.261       .  A
C883       C1121   1.470       .  S
C887       C1554   1.486       .  S
In890       O893   2.238       .  S
In890       O901   2.273   1_554  S
In890       O898   2.245   1_554  S
In890       O902   2.251   1_554  S
C891        O897   1.258       .  A
C891        O899   1.261       .  A
C891       C1065   1.463       .  S
O892        C900   1.258       .  A
C894        O901   1.261   1_554  A
C894       C1573   1.481   1_554  S
C896        O898   1.261       .  A
C896        O902   1.264       .  A
C896       C1043   1.467       .  S
C900       C1538   1.483       .  S
In903       O905   2.223       .  S
In903       O908   2.255   1_556  S
In903       O910   2.237       .  S
In903       O912   2.243       .  S
C904        O910   1.262       .  A
C904        O912   1.265       .  A
C904        C948   1.465       .  S
O905        C913   1.252       .  A
C907        O914   1.261       .  A
C907       C1525   1.488       .  S
C909        O911   1.258       .  A
C909        O915   1.259       .  A
C909        C978   1.465       .  S
C913       C1541   1.483       .  S
In916       O919   2.260   1_556  S
In916       O927   2.276   1_556  S
In916       O924   2.288       .  S
In916       O928   2.219       .  S
C917        O923   1.260       .  A
C917        O925   1.262       .  A
C917       C1013   1.467       .  S
O918        C926   1.257       .  A
C920        O927   1.263   1_556  A
C920       C1522   1.473       .  S
C922        O924   1.266       .  A
C922        O928   1.258       .  A
C922        C991   1.471       .  S
C926       C1557   1.486       .  S
In929       O931   2.240       .  S
In929       O932   2.262       .  S
In929       O940   2.237       .  S
In929       O934   2.244       .  S
In929       O936   2.278       .  S
In929       O937   2.281       .  S
In929       O938   2.226       .  S
In929       O941   2.224       .  S
C930        O936   1.263       .  A
C930        O938   1.260       .  A
C930       C1474   1.492       .  S
O931        C939   1.259       .  A
O932        C939   1.262       .  A
C933        O940   1.262       .  A
C933        O934   1.265       .  A
C933       C1506   1.492       .  S
C935        O937   1.263       .  A
C935        O941   1.258       .  A
C935       C1493   1.490       .  S
In942       O944   2.234       .  S
In942       O945   2.275       .  S
In942       O953   2.241       .  S
In942       O947   2.247       .  S
In942       O949   2.266       .  S
In942       O950   2.254       .  S
In942       O951   2.230       .  S
In942       O954   2.244       .  S
C943        O949   1.264       .  A
C943        O951   1.260       .  A
C943       C1445   1.487       .  S
O944        C952   1.258       .  A
O945        C952   1.263       .  A
C946        O953   1.263       .  A
C946        O947   1.263       .  A
C946       C1509   1.493       .  S
C948        O950   1.262       .  A
C948        O954   1.259       .  A
C952       C1458   1.490       .  S
In955       O957   2.227       .  S
In955       O958   2.278       .  S
In955       O966   2.237       .  S
In955       O960   2.245       .  S
In955       O962   2.263       .  S
In955       O963   2.264       .  S
In955       O964   2.218       .  S
In955       O967   2.248       .  S
C956        O962   1.264       .  A
C956        O964   1.258       .  A
C956       C1410   1.480       .  S
O957        C965   1.258       .  A
O958        C965   1.266       .  A
C959        O966   1.264       .  A
C959        O960   1.263       .  A
C959       C1429   1.493       .  S
C961        O963   1.262       .  A
C961        O967   1.260       .  A
C965       C1490   1.491       .  S
In968       O970   2.238       .  S
In968       O971   2.254       .  S
In968       O979   2.237       .  S
In968       O973   2.256       .  S
In968       O975   2.256       .  S
In968       O976   2.274       .  S
In968       O977   2.240       .  S
In968       O980   2.236       .  S
C969        O975   1.264       .  A
C969        O977   1.260       .  A
C969       C1394   1.486       .  S
O970        C978   1.260       .  A
O971        C978   1.264       .  A
C972        O979   1.261       .  A
C972        O973   1.265       .  A
C972       C1426   1.495       .  S
C974        O976   1.265       .  A
C974        O980   1.258       .  A
C974       C1461   1.490       .  S
In981       O983   2.226       .  S
In981       O984   2.286       .  S
In981       O992   2.246       .  S
In981       O986   2.255       .  S
In981       O988   2.263       .  S
In981       O989   2.273       .  S
In981       O990   2.242       .  S
In981       O993   2.221       .  S
C982        O988   1.264       .  A
C982        O990   1.263       .  A
C982       C1346   1.498       .  S
O983        C991   1.258       .  A
O984        C991   1.264       .  A
C985        O992   1.262       .  A
C985        O986   1.262       .  A
C985       C1381   1.495       .  S
C987        O989   1.266       .  A
C987        O993   1.261       .  A
C987       C1362   1.492       .  S
In994       O996   2.237       .  S
In994       O997   2.269       .  S
In994      O1005   2.222       .  S
In994       O999   2.262       .  S
In994      O1001   2.286       .  S
In994      O1002   2.263       .  S
In994      O1003   2.211       .  S
In994      O1006   2.241       .  S
C995       O1001   1.268       .  A
C995       O1003   1.258       .  A
C995       C1477   1.494       .  S
O996       C1004   1.260       .  A
O997       C1004   1.265       .  A
C998       O1005   1.260       .  A
C998        O999   1.268       .  A
C998       C1378   1.493       .  S
C1000      O1002   1.263       .  A
C1000      O1006   1.259       .  A
C1004      C1330   1.488       .  S
In1007     O1009   2.214       .  S
In1007     O1010   2.283       .  S
In1007     O1018   2.234       .  S
In1007     O1012   2.239       .  S
In1007     O1014   2.258       .  S
In1007     O1015   2.257       .  S
In1007     O1016   2.235       .  S
In1007     O1019   2.237       .  S
C1008      O1014   1.263       .  A
C1008      O1016   1.261       .  A
C1008      C1298   1.488       .  S
O1009      C1017   1.257       .  A
O1010      C1017   1.266       .  A
C1011      O1018   1.262       .  A
C1011      O1012   1.265       .  A
C1011      C1314   1.489       .  S
C1013      O1015   1.265       .  A
C1013      O1019   1.260       .  A
C1017      C1365   1.484       .  S
In1020     O1022   2.250       .  S
In1020     O1023   2.252       .  S
In1020     O1031   2.227       .  S
In1020     O1025   2.251       .  S
In1020     O1027   2.262       .  S
In1020     O1028   2.274       .  S
In1020     O1029   2.220       .  S
In1020     O1032   2.230       .  S
C1021      O1027   1.265       .  A
C1021      O1029   1.260       .  A
C1021      C1413   1.484       .  S
O1022      C1030   1.260       .  A
O1023      C1030   1.263       .  A
C1024      O1031   1.263       .  A
C1024      O1025   1.264       .  A
C1024      C1317   1.490       .  S
C1026      O1028   1.264       .  A
C1026      O1032   1.259       .  A
C1026      C1333   1.487       .  S
In1033     O1035   2.248       .  S
In1033     O1036   2.256       .  S
In1033     O1044   2.240       .  S
In1033     O1038   2.240       .  S
In1033     O1040   2.267       .  S
In1033     O1041   2.279       .  S
In1033     O1042   2.226       .  S
In1033     O1045   2.223       .  S
C1034      O1040   1.264       .  A
C1034      O1042   1.258       .  A
C1034      C1442   1.483       .  S
O1035      C1043   1.260       .  A
O1036      C1043   1.262       .  A
C1037      O1044   1.265       .  A
C1037      O1038   1.264       .  A
C1037      C1285   1.491       .  S
C1039      O1041   1.265       .  A
C1039      O1045   1.256       .  A
C1039      C1269   1.489       .  S
In1046     O1048   2.232       .  S
In1046     O1049   2.253       .  S
In1046     O1057   2.228       .  S
In1046     O1051   2.270       .  S
In1046     O1053   2.258       .  S
In1046     O1054   2.262       .  S
In1046     O1055   2.238       .  S
In1046     O1058   2.233       .  S
C1047      O1053   1.263       .  A
C1047      O1055   1.259       .  A
O1048      C1056   1.262       .  A
O1049      C1056   1.266       .  A
C1050      O1057   1.259       .  A
C1050      O1051   1.264       .  A
C1050      C1253   1.489       .  S
C1052      O1054   1.265       .  A
C1052      O1058   1.260       .  A
C1052      C1234   1.482       .  S
C1056      C1282   1.492       .  S
In1059     O1061   2.226       .  S
In1059     O1062   2.267       .  S
In1059     O1070   2.226       .  S
In1059     O1064   2.239       .  S
In1059     O1066   2.253       .  S
In1059     O1067   2.251       .  S
In1059     O1068   2.236       .  S
In1059     O1071   2.236       .  S
C1060      O1066   1.265       .  A
C1060      O1068   1.260       .  A
C1060      C1397   1.483       .  S
O1061      C1069   1.259       .  A
O1062      C1069   1.264       .  A
C1063      O1070   1.261       .  A
C1063      O1064   1.265       .  A
C1063      C1218   1.486       .  S
C1065      O1067   1.264       .  A
C1065      O1071   1.260       .  A
C1069      C1266   1.488       .  S
In1072     O1074   2.226       .  S
In1072     O1075   2.249       .  S
In1072     O1083   2.221       .  S
In1072     O1077   2.235       .  S
In1072     O1079   2.261       .  S
In1072     O1080   2.263       .  S
In1072     O1081   2.226       .  S
In1072     O1084   2.215       .  S
C1073      O1079   1.264       .  A
C1073      O1081   1.258       .  A
C1073      C1202   1.487       .  S
O1074      C1082   1.258       .  A
O1075      C1082   1.263       .  A
C1076      O1083   1.263       .  A
C1076      O1077   1.264       .  A
C1076      C1221   1.484       .  S
C1078      O1080   1.265       .  A
C1078      O1084   1.259       .  A
C1078      C1250   1.485       .  S
In1085     O1087   2.245       .  S
In1085     O1088   2.250       .  S
In1085     O1096   2.200       .  S
In1085     O1090   2.282       .  S
In1085     O1092   2.279       .  S
In1085     O1093   2.255       .  S
In1085     O1094   2.198       .  S
In1085     O1097   2.242       .  S
C1086      O1092   1.267       .  A
C1086      O1094   1.258       .  A
O1087      C1095   1.264       .  A
O1088      C1095   1.263       .  A
C1089      O1096   1.260       .  A
C1089      O1090   1.267       .  A
C1089      C1170   1.492       .  S
C1091      O1093   1.266       .  A
C1091      O1097   1.262       .  A
C1091      C1349   1.496       .  S
C1095      C1186   1.491       .  S
In1098     O1100   2.234       .  S
In1098     O1101   2.252       .  S
In1098     O1109   2.233       .  S
In1098     O1103   2.261       .  S
In1098     O1105   2.265       .  S
In1098     O1106   2.280       .  S
In1098     O1107   2.239       .  S
In1098     O1110   2.226       .  S
C1099      O1105   1.265       .  A
C1099      O1107   1.260       .  A
C1099      C1237   1.487       .  S
O1100      C1108   1.260       .  A
O1101      C1108   1.264       .  A
C1102      O1109   1.262       .  A
C1102      O1103   1.266       .  A
C1102      C1189   1.495       .  S
C1104      O1106   1.266       .  A
C1104      O1110   1.258       .  A
C1104      C1154   1.489       .  S
In1111     O1113   2.248       .  S
In1111     O1114   2.261       .  S
In1111     O1122   2.238       .  S
In1111     O1116   2.253       .  S
In1111     O1118   2.268       .  S
In1111     O1119   2.277       .  S
In1111     O1120   2.227       .  S
In1111     O1123   2.221       .  S
C1112      O1118   1.264       .  A
C1112      O1120   1.258       .  A
C1112      C1301   1.485       .  S
O1113      C1121   1.260       .  A
O1114      C1121   1.262       .  A
C1115      O1122   1.264       .  A
C1115      O1116   1.264       .  A
C1115      C1138   1.495       .  S
C1117      O1119   1.264       .  A
C1117      O1123   1.258       .  A
C1117      C1173   1.485       .  S
In1124     O1126   2.233       .  S
In1124     O1127   2.269       .  S
In1124     O1135   2.245       .  S
In1124     O1129   2.268       .  S
In1124     O1131   2.258       .  S
In1124     O1132   2.272       .  S
In1124     O1133   2.249       .  S
In1124     O1136   2.218       .  S
C1125      O1131   1.263       .  A
C1125      O1133   1.261       .  A
O1126      C1134   1.261       .  A
O1127      C1134   1.267       .  A
C1128      O1135   1.261       .  A
C1128      O1129   1.264       .  A
C1128      C1157   1.493       .  S
C1130      O1132   1.267       .  A
C1130      O1136   1.260       .  A
C1130      C1205   1.491       .  S
C1134      C1141   1.498       .  S
C1137      C1138   1.405       .  A
C1137      C1142   1.405       .  A
C1137      H1144   1.086       .  S
C1138      C1139   1.419       .  A
C1139      C1140   1.410       .  A
C1139      C1146   1.507       .  S
C1140      C1141   1.407       .  A
C1140      H1145   1.086       .  S
C1141      C1142   1.421       .  A
C1142      C1143   1.509       .  S
C1143      H1147   1.111       .  S
C1143      H1148   1.110       .  S
C1143      H1149   1.110       .  S
C1146      H1150   1.110       .  S
C1146      H1151   1.110       .  S
C1146      H1152   1.111       .  S
C1153      C1154   1.405       .  A
C1153      C1158   1.411       .  A
C1153      H1160   1.084       .  S
C1154      C1155   1.417       .  A
C1155      C1156   1.405       .  A
C1155      C1162   1.510       .  S
C1156      C1157   1.405       .  A
C1156      H1161   1.084       .  S
C1157      C1158   1.418       .  A
C1158      C1159   1.506       .  S
C1159      H1163   1.111       .  S
C1159      H1164   1.110       .  S
C1159      H1165   1.110       .  S
C1162      H1166   1.111       .  S
C1162      H1167   1.109       .  S
C1162      H1168   1.111       .  S
C1169      C1170   1.405       .  A
C1169      C1174   1.397       .  A
C1169      H1176   1.084       .  S
C1170      C1171   1.419       .  A
C1171      C1172   1.413       .  A
C1171      C1178   1.506       .  S
C1172      C1173   1.406       .  A
C1172      H1177   1.084       .  S
C1173      C1174   1.415       .  A
C1174      C1175   1.511       .  S
C1175      H1179   1.111       .  S
C1175      H1180   1.109       .  S
C1175      H1181   1.110       .  S
C1178      H1182   1.110       .  S
C1178      H1183   1.110       .  S
C1178      H1184   1.111       .  S
C1185      C1186   1.403       .  A
C1185      C1190   1.404       .  A
C1185      H1192   1.086       .  S
C1186      C1187   1.417       .  A
C1187      C1188   1.409       .  A
C1187      C1194   1.507       .  S
C1188      C1189   1.407       .  A
C1188      H1193   1.087       .  S
C1189      C1190   1.420       .  A
C1190      C1191   1.509       .  S
C1191      H1195   1.111       .  S
C1191      H1196   1.110       .  S
C1191      H1197   1.110       .  S
C1194      H1198   1.111       .  S
C1194      H1199   1.109       .  S
C1194      H1200   1.111       .  S
C1201      C1202   1.406   1_545  A
C1201      C1206   1.408       .  A
C1201      H1208   1.084   1_545  S
C1202      C1203   1.418   1_565  A
C1203      C1204   1.402       .  A
C1203      C1210   1.511   1_545  S
C1204      C1205   1.407       .  A
C1204      H1209   1.084       .  S
C1205      C1206   1.416       .  A
C1206      C1207   1.506       .  S
C1207      H1211   1.111       .  S
C1207      H1212   1.110       .  S
C1207      H1213   1.110       .  S
C1210      H1214   1.109       .  S
C1210      H1215   1.109       .  S
C1210      H1216   1.111   1_565  S
C1217      C1218   1.406       .  A
C1217      C1222   1.404       .  A
C1217      H1224   1.083       .  S
C1218      C1219   1.418       .  A
C1219      C1220   1.402       .  A
C1219      C1226   1.509       .  S
C1220      C1221   1.404       .  A
C1220      H1225   1.083       .  S
C1221      C1222   1.416       .  A
C1222      C1223   1.508       .  S
C1223      H1227   1.111       .  S
C1223      H1228   1.110       .  S
C1223      H1229   1.110       .  S
C1226      H1230   1.110       .  S
C1226      H1231   1.110       .  S
C1226      H1232   1.111       .  S
C1233      C1234   1.403   1_545  A
C1233      C1238   1.407       .  A
C1233      H1240   1.084   1_545  S
C1234      C1235   1.415   1_565  A
C1235      C1236   1.406       .  A
C1235      C1242   1.509   1_545  S
C1236      C1237   1.406       .  A
C1236      H1241   1.084       .  S
C1237      C1238   1.415       .  A
C1238      C1239   1.506       .  S
C1239      H1243   1.111       .  S
C1239      H1244   1.110       .  S
C1239      H1245   1.111       .  S
C1242      H1246   1.109       .  S
C1242      H1247   1.109       .  S
C1242      H1248   1.111   1_565  S
C1249      C1250   1.405       .  A
C1249      C1254   1.410       .  A
C1249      H1256   1.084       .  S
C1250      C1251   1.416       .  A
C1251      C1252   1.401       .  A
C1251      C1258   1.510       .  S
C1252      C1253   1.405       .  A
C1252      H1257   1.085       .  S
C1253      C1254   1.417       .  A
C1254      C1255   1.506       .  S
C1255      H1259   1.111       .  S
C1255      H1260   1.110       .  S
C1255      H1261   1.110       .  S
C1258      H1262   1.111       .  S
C1258      H1263   1.110       .  S
C1258      H1264   1.111       .  S
C1265      C1266   1.403       .  A
C1265      C1270   1.401       .  A
C1265      H1272   1.085       .  S
C1266      C1267   1.417       .  A
C1267      C1268   1.410       .  A
C1267      C1274   1.506       .  S
C1268      C1269   1.406       .  A
C1268      H1273   1.083       .  S
C1269      C1270   1.419       .  A
C1270      C1271   1.510       .  S
C1271      H1275   1.111       .  S
C1271      H1276   1.111       .  S
C1271      H1277   1.109       .  S
C1274      H1278   1.110       .  S
C1274      H1279   1.111       .  S
C1274      H1280   1.111       .  S
C1281      C1282   1.405       .  A
C1281      C1286   1.407       .  A
C1281      H1288   1.086       .  S
C1282      C1283   1.419       .  A
C1283      C1284   1.405       .  A
C1283      C1290   1.508       .  S
C1284      C1285   1.404       .  A
C1284      H1289   1.086       .  S
C1285      C1286   1.419       .  A
C1286      C1287   1.508       .  S
C1287      H1291   1.111       .  S
C1287      H1292   1.110       .  S
C1287      H1293   1.110       .  S
C1290      H1294   1.109       .  S
C1290      H1295   1.111       .  S
C1290      H1296   1.111       .  S
C1297      C1298   1.404       .  A
C1297      C1302   1.403   1_455  A
C1297      H1304   1.084       .  S
C1298      C1299   1.418   1_455  A
C1299      C1300   1.408       .  A
C1299      C1306   1.507   1_655  S
C1300      C1301   1.405       .  A
C1300      H1305   1.083       .  S
C1301      C1302   1.416       .  A
C1302      C1303   1.509       .  S
C1303      H1307   1.109       .  S
C1303      H1308   1.108       .  S
C1303      H1309   1.111       .  S
C1306      H1310   1.110       .  S
C1306      H1311   1.110       .  S
C1306      H1312   1.111   1_455  S
C1313      C1314   1.406       .  A
C1313      C1318   1.405       .  A
C1313      H1320   1.083       .  S
C1314      C1315   1.418       .  A
C1315      C1316   1.403       .  A
C1315      C1322   1.509       .  S
C1316      C1317   1.406       .  A
C1316      H1321   1.083       .  S
C1317      C1318   1.418       .  A
C1318      C1319   1.507       .  S
C1319      H1323   1.111       .  S
C1319      H1324   1.110       .  S
C1319      H1325   1.110       .  S
C1322      H1326   1.110       .  S
C1322      H1327   1.110       .  S
C1322      H1328   1.111       .  S
C1329      C1330   1.406       .  A
C1329      C1334   1.410       .  A
C1329      H1336   1.084       .  S
C1330      C1331   1.417       .  A
C1331      C1332   1.403       .  A
C1331      C1338   1.509       .  S
C1332      C1333   1.404       .  A
C1332      H1337   1.086       .  S
C1333      C1334   1.415       .  A
C1334      C1335   1.506       .  S
C1335      H1339   1.111       .  S
C1335      H1340   1.110       .  S
C1335      H1341   1.110       .  S
C1338      H1342   1.109       .  S
C1338      H1343   1.111       .  S
C1338      H1344   1.111       .  S
C1345      C1346   1.406   1_655  A
C1345      C1350   1.406       .  A
C1345      H1352   1.084   1_655  S
C1346      C1347   1.419   1_455  A
C1347      C1348   1.409       .  A
C1347      C1354   1.507   1_655  S
C1348      C1349   1.407       .  A
C1348      H1353   1.084       .  S
C1349      C1350   1.420       .  A
C1350      C1351   1.509       .  S
C1351      H1355   1.111       .  S
C1351      H1356   1.110       .  S
C1351      H1357   1.110       .  S
C1354      H1358   1.110       .  S
C1354      H1359   1.110       .  S
C1354      H1360   1.111   1_455  S
C1361      C1362   1.404       .  A
C1361      C1366   1.400       .  A
C1361      H1368   1.084       .  S
C1362      C1363   1.419       .  A
C1363      C1364   1.413       .  A
C1363      C1370   1.505       .  S
C1364      C1365   1.405       .  A
C1364      H1369   1.083       .  S
C1365      C1366   1.415       .  A
C1366      C1367   1.511       .  S
C1367      H1371   1.111       .  S
C1367      H1372   1.111       .  S
C1367      H1373   1.109       .  S
C1370      H1374   1.110       .  S
C1370      H1375   1.110       .  S
C1370      H1376   1.111       .  S
C1377      C1378   1.405       .  A
C1377      C1382   1.408       .  A
C1377      H1384   1.087       .  S
C1378      C1379   1.420       .  A
C1379      C1380   1.404       .  A
C1379      C1386   1.509       .  S
C1380      C1381   1.405       .  A
C1380      H1385   1.086       .  S
C1381      C1382   1.420       .  A
C1382      C1383   1.507       .  S
C1383      H1387   1.111       .  S
C1383      H1388   1.110       .  S
C1383      H1389   1.110       .  S
C1386      H1390   1.110       .  S
C1386      H1391   1.111       .  S
C1386      H1392   1.111       .  S
C1393      C1394   1.407   1_655  A
C1393      C1398   1.406       .  A
C1393      H1400   1.084   1_655  S
C1394      C1395   1.416   1_455  A
C1395      C1396   1.405       .  A
C1395      C1402   1.507   1_655  S
C1396      C1397   1.402       .  A
C1396      H1401   1.083       .  S
C1397      C1398   1.416       .  A
C1398      C1399   1.509       .  S
C1399      H1403   1.111       .  S
C1399      H1404   1.111       .  S
C1399      H1405   1.109       .  S
C1402      H1406   1.110       .  S
C1402      H1407   1.111       .  S
C1402      H1408   1.110   1_455  S
C1409      C1410   1.405   1_545  A
C1409      C1414   1.408       .  A
C1409      H1416   1.084   1_545  S
C1410      C1411   1.415   1_565  A
C1411      C1412   1.400       .  A
C1411      C1418   1.510   1_545  S
C1412      C1413   1.404       .  A
C1412      H1417   1.084       .  S
C1413      C1414   1.416       .  A
C1414      C1415   1.506       .  S
C1415      H1419   1.111       .  S
C1415      H1420   1.110       .  S
C1415      H1421   1.110       .  S
C1418      H1422   1.111       .  S
C1418      H1423   1.109       .  S
C1418      H1424   1.111   1_565  S
C1425      C1426   1.407       .  A
C1425      C1430   1.408       .  A
C1425      H1432   1.083       .  S
C1426      C1427   1.419       .  A
C1427      C1428   1.405       .  A
C1427      C1434   1.508       .  S
C1428      C1429   1.405       .  A
C1428      H1433   1.083       .  S
C1429      C1430   1.419       .  A
C1430      C1431   1.508       .  S
C1431      H1435   1.111       .  S
C1431      H1436   1.111       .  S
C1431      H1437   1.110       .  S
C1434      H1438   1.110       .  S
C1434      H1439   1.110       .  S
C1434      H1440   1.111       .  S
C1441      C1442   1.404       .  A
C1441      C1446   1.408       .  A
C1441      H1448   1.082       .  S
C1442      C1443   1.416       .  A
C1443      C1444   1.403       .  A
C1443      C1450   1.510       .  S
C1444      C1445   1.405   1_655  A
C1444      H1449   1.083   1_655  S
C1445      C1446   1.417   1_455  A
C1446      C1447   1.506   1_655  S
C1447      H1451   1.111   1_455  S
C1447      H1452   1.110       .  S
C1447      H1453   1.110       .  S
C1450      H1454   1.108       .  S
C1450      H1455   1.111       .  S
C1450      H1456   1.111       .  S
C1457      C1458   1.405       .  A
C1457      C1462   1.404       .  A
C1457      H1464   1.085       .  S
C1458      C1459   1.417       .  A
C1459      C1460   1.410       .  A
C1459      C1466   1.506       .  S
C1460      C1461   1.406       .  A
C1460      H1465   1.083       .  S
C1461      C1462   1.418       .  A
C1462      C1463   1.509       .  S
C1463      H1467   1.111       .  S
C1463      H1468   1.110       .  S
C1463      H1469   1.109       .  S
C1466      H1470   1.110       .  S
C1466      H1471   1.111       .  S
C1466      H1472   1.111       .  S
C1473      C1474   1.402   1_545  A
C1473      C1478   1.400       .  A
C1473      H1480   1.085   1_545  S
C1474      C1475   1.418   1_565  A
C1475      C1476   1.413       .  A
C1475      C1482   1.506   1_545  S
C1476      C1477   1.408       .  A
C1476      H1481   1.084       .  S
C1477      C1478   1.420       .  A
C1478      C1479   1.510       .  S
C1479      H1483   1.111       .  S
C1479      H1484   1.110       .  S
C1479      H1485   1.110       .  S
C1482      H1486   1.111       .  S
C1482      H1487   1.110       .  S
C1482      H1488   1.111   1_565  S
C1489      C1490   1.408       .  A
C1489      C1494   1.412       .  A
C1489      H1496   1.083       .  S
C1490      C1491   1.419       .  A
C1491      C1492   1.401       .  A
C1491      C1498   1.510       .  S
C1492      C1493   1.404       .  A
C1492      H1497   1.084       .  S
C1493      C1494   1.416       .  A
C1494      C1495   1.506       .  S
C1495      H1499   1.111       .  S
C1495      H1500   1.110       .  S
C1495      H1501   1.110       .  S
C1498      H1502   1.109       .  S
C1498      H1503   1.111       .  S
C1498      H1504   1.111       .  S
C1505      C1506   1.406       .  A
C1505      C1510   1.406       .  A
C1505      H1512   1.086       .  S
C1506      C1507   1.419       .  A
C1507      C1508   1.405       .  A
C1507      C1514   1.509       .  S
C1508      C1509   1.406       .  A
C1508      H1513   1.086       .  S
C1509      C1510   1.419       .  A
C1510      C1511   1.508       .  S
C1511      H1515   1.111       .  S
C1511      H1516   1.110       .  S
C1511      H1517   1.110       .  S
C1514      H1518   1.110       .  S
C1514      H1519   1.110       .  S
C1514      H1520   1.111       .  S
C1521      C1522   1.400       .  A
C1521      C1526   1.404       .  A
C1521      H1528   1.085       .  S
C1522      C1523   1.410   1_556  A
C1523      C1530   1.507       .  S
C1524      C1525   1.406       .  A
C1524      H1529   1.084       .  S
C1527      H1533   1.110       .  S
C1530      H1534   1.110       .  S
C1537      C1542   1.398       .  A
C1537      H1544   1.084       .  S
C1538      C1539   1.416       .  A
C1539      C1540   1.403       .  A
C1539      C1546   1.508       .  S
C1540      H1545   1.084   1_655  S
C1541      C1542   1.419   1_456  A
C1542      C1543   1.510   1_655  S
C1543      H1547   1.111   1_455  S
C1543      H1548   1.111   1_554  S
C1543      H1549   1.110       .  S
C1546      H1550   1.110       .  S
C1546      H1551   1.110       .  S
C1546      H1552   1.111       .  S
C1553      C1558   1.404       .  A
C1553      H1560   1.086       .  S
C1554      C1555   1.418       .  A
C1555      C1556   1.400   1_655  A
C1555      C1562   1.510       .  S
C1556      H1561   1.085       .  S
C1557      C1558   1.417   1_455  A
C1558      C1559   1.508   1_655  S
C1559      H1563   1.111   1_455  S
C1559      H1564   1.110       .  S
C1562      H1567   1.111       .  S
C1562      H1568   1.112       .  S
C1569      C1574   1.406       .  A
C1569      H1576   1.084       .  S
C1570      C1571   1.412       .  A
C1571      C1572   1.404       .  A
C1571      C1578   1.507       .  S
C1572      H1577   1.084       .  S
C1573      C1574   1.416       .  A
C1574      C1575   1.508       .  S
C1575      H1579   1.111       .  S
C1575      H1580   1.111       .  S
C1575      H1581   1.110       .  S
C1578      H1582   1.111       .  S
C1578      H1583   1.110       .  S
C1578      H1584   1.111       .  S
C1585      C1586   1.405       .  A
C1585      C1590   1.405       .  A
C1585      H1592   1.084       .  S
C1587      C1588   1.406       .  A
C1587      C1594   1.507       .  S
C1588      C1589   1.406       .  A
C1588      H1593   1.084       .  S
C1590      C1591   1.508       .  S
C1591      H1595   1.111       .  S
C1591      H1596   1.110       .  S
C1591      H1597   1.111       .  S
C1594      H1598   1.111       .  S
C1594      H1599   1.110       .  S
C1594      H1600   1.111       .  S
C1601      C1602   1.404   1_545  A
C1601      H1608   1.085   1_545  S
C1603      C1604   1.402       .  A
C1604      C1605   1.401       .  A
C1604      H1609   1.084       .  S
C1605      C1606   1.414   1_556  A
C1606      C1607   1.508       .  S
C1607      H1611   1.111       .  S
C1607      H1613   1.110   1_554  S
C1610      H1614   1.110       .  S
C1617      C1618   1.404   1_546  A
C1617      C1622   1.402       .  A
C1617      H1624   1.085   1_545  S
C1619      C1620   1.401       .  A
C1619      C1626   1.510   1_545  S
C1620      C1621   1.404       .  A
C1620      H1625   1.083       .  S
C1622      C1623   1.508       .  S
C1623      H1627   1.111       .  S
C1623      H1628   1.111       .  S
C1626      H1631   1.108       .  S
C1626      H1632   1.111   1_565  S
C1633      C1634   1.404       .  A
C1633      C1638   1.404       .  A
C1633      H1640   1.084       .  S
C1635      C1636   1.403       .  A
C1635      C1642   1.507       .  S
C1636      C1637   1.402       .  A
C1636      H1641   1.085       .  S
C1638      C1639   1.507       .  S
C1639      H1643   1.111       .  S
C1639      H1644   1.110       .  S
C1639      H1645   1.110       .  S
C1642      H1646   1.110       .  S
C1642      H1647   1.111       .  S
C1642      H1648   1.111       .  S
