geometry optimzed in LAMMPS
_audit_creation_date              2020-11-30 
_audit_creation_method            'lammps2cif' 
_symmetry_space_group_name_H-M    'P1' 
_symmetry_Int_Tables_number       1 
_symmetry_cell_setting            triclinic 
loop_ 
_symmetry_equiv_pos_as_xyz 
  x,y,z 
_cell_length_a                    47.0755082 
_cell_length_b                    47.12902417438035 
_cell_length_c                    47.128131078828694 
_cell_angle_alpha                 90.00114566293915 
_cell_angle_beta                  89.95320324265609 
_cell_angle_gamma                 90.00078117416454 
loop_ 
_atom_site_label 
_atom_site_type_symbol 
_atom_site_fract_x 
_atom_site_fract_y 
_atom_site_fract_z 
_atom_site_charge 
C1          C  0.40275295  0.37210362  0.41002387     0.04000
C2          C  0.37676044  0.38524251  0.41643085    -0.12100
C3          C  0.36357402  0.40401619  0.39697764     0.01500
C4          C  0.37782975  0.40973193  0.37149901    -0.10700
C5          C  0.40514946  0.39904779  0.36575069     0.04000
C6          C  0.41659672  0.37922583  0.38435305    -0.10100
H7          H  0.36770546  0.38210232  0.43724070     0.09600
H8          H  0.36856211  0.42334237  0.35613277     0.07100
H9          H  0.43722522  0.37068413  0.37951839     0.07000
C10         C  0.15664619  0.40477713  0.18950549     0.04000
C11         C  0.16519995  0.42965774  0.17539435    -0.12100
C12         C  0.15044450  0.44051339  0.15155638     0.01500
C13         C  0.12729799  0.42475048  0.14152310    -0.10700
C14         C  0.11943250  0.39856283  0.15376775     0.04000
C15         C  0.13433066  0.38895419  0.17741878    -0.10100
H16         H  0.18453207  0.43945002  0.18174582     0.09600
H17         H  0.11637307  0.43177541  0.12299269     0.07100
H18         H  0.12991487  0.36789240  0.18481660     0.07000
C19         C  0.41264131  0.36136297  0.15544109     0.04000
C20         C  0.43857002  0.37458830  0.14880473    -0.12100
C21         C  0.44859156  0.39844596  0.16398476     0.01500
C22         C  0.43210079  0.40819736  0.18669573    -0.10700
C23         C  0.40476377  0.39737396  0.19242500     0.04000
C24         C  0.39520528  0.37422502  0.17632598    -0.10100
H25         H  0.45053450  0.36708411  0.13115010     0.09600
H26         H  0.44000345  0.42500224  0.19959059     0.07100
H27         H  0.37361013  0.36712212  0.17898407     0.07000
C28         C  0.10839948  0.14844049  0.14259092     0.04000
C29         C  0.11841547  0.12457487  0.15776227    -0.12100
C30         C  0.14434460  0.11134968  0.15112619     0.01500
C31         C  0.16178265  0.12421464  0.13024503    -0.10700
C32         C  0.15222818  0.14736843  0.11415199     0.04000
C33         C  0.12489247  0.15819424  0.11988272    -0.10100
H34         H  0.10644834  0.11706466  0.17541235     0.09600
H35         H  0.18337796  0.11711182  0.12758785     0.07100
H36         H  0.11699533  0.17500472  0.10699440     0.07000
C37         C  0.43757095  0.14856113  0.15279450     0.04000
C38         C  0.42971793  0.17475414  0.16503959    -0.12100
C39         C  0.40657545  0.19052438  0.15501120     0.01500
C40         C  0.39181283  0.17967529  0.13117235    -0.10700
C41         C  0.40035943  0.15479092  0.11705913     0.04000
C42         C  0.42266539  0.13895711  0.12914544    -0.10100
H43         H  0.44065026  0.18177698  0.18356622     0.09600
H44         H  0.37249621  0.18946850  0.12482684     0.07100
H45         H  0.42706793  0.11789135  0.12174820     0.07000
C46         C  0.39967152  0.19345841  0.40436488     0.04000
C47         C  0.40970162  0.18742404  0.43183511    -0.12100
C48         C  0.40206604  0.16259547  0.44620585     0.01500
C49         C  0.38074795  0.14516278  0.43387746    -0.10700
C50         C  0.36715478  0.15267538  0.40830282     0.04000
C51         C  0.37884921  0.17567220  0.39283652    -0.10100
H52         H  0.42418305  0.20185793  0.44153226     0.09600
H53         H  0.37579585  0.12520848  0.44360292     0.07100
H54         H  0.37286387  0.17896592  0.37109120     0.07000
C55         C  0.15492946  0.41259124  0.36036845     0.04000
C56         C  0.17624272  0.39515301  0.37269601    -0.12100
C57         C  0.18982676  0.40265591  0.39827992     0.01500
C58         C  0.17812765  0.42564626  0.41375176    -0.10700
C59         C  0.15731511  0.44343926  0.40222183     0.04000
C60         C  0.14729244  0.43741617  0.37474629    -0.10100
H61         H  0.18119758  0.37520348  0.36296149     0.09600
H62         H  0.18410351  0.42893285  0.43550091     0.07100
H63         H  0.13281856  0.45185537  0.36505209     0.07000
O64         O  0.49998534  0.06502343  0.06148936    -0.87500
C65         C  0.06817695  0.11585851  0.05049653     0.88600
Mg66       Mg  0.49782193  0.03468102  0.09458460     1.58100
O67         O  0.06330987  0.06040224  0.50197710    -0.87200
O68         O  0.49818524  0.06521936  0.51479088    -0.74500
C69         C  0.12626877  0.47818557  0.09700865     0.93600
O70         O  0.04180818  0.09204415  0.10776685    -0.74300
O71         O  0.10462482  0.47912875  0.11306494    -0.81800
Mg72       Mg  0.51154499  0.10751213  0.07288157     1.58000
C73         C  0.12663704  0.50998900  0.48017631     0.93500
O74         O  0.47932497  0.12300579  0.03945391    -0.80100
H75         H  0.04138408  0.03874168  0.47274369    -0.05400
C76         C  0.11469409  0.04991202  0.06889192     0.88500
O77         O  0.51254759  0.49961562  0.06401074    -0.74600
O78         O  0.04548293  0.10467442  0.04305113    -0.87400
O79         O  0.11877434  0.03587035  0.47987139    -0.80200
C80         C  0.09625369  0.12700398  0.47828403     0.93700
C81         C  0.47839998  0.13088489  0.51358508     0.93500
Mg82       Mg  0.09315970  0.49901819  0.03615702     1.58000
O83         O  0.12433982  0.48460125  0.07078516    -0.80100
O84         O  0.06295206  0.51366586  0.50038593    -0.74300
O85         O  0.07009641  0.12562136  0.48568308    -0.80200
O86         O  0.47828662  0.11239984  0.10794263    -0.81900
O87         O  0.03725064  0.47929267  0.12218328    -0.80200
C88         C  0.05549112  0.03785685  0.49081282     0.88000
O89         O  0.05927849  0.50103673  0.06524945    -0.87400
O90         O  0.10344034  0.04180218  0.04651001    -0.87500
O91         O  0.10527190  0.04271440  0.09318818    -0.74500
Mg92       Mg  0.03437225  0.09477281  0.50026598     1.58000
O93         O  0.11170649  0.10486464  0.47794983    -0.81900
H94         H  0.46988311  0.04440847  0.03977165    -0.05600
O95         O  0.04055162  0.04538640  0.10533221    -0.87200
H96         H  0.06310642  0.06609615  0.13469974    -0.05400
H97         H  0.03793626  0.47172507  0.04317666    -0.05600
C98         C  0.04871109  0.06758315  0.11689878     0.87900
C99         C  0.48840228  0.05793418  0.03893519     0.88500
C100        C  0.03683515  0.48981930  0.05722914     0.88600
H101        H  0.13256289  0.06428390  0.06774486    -0.05600
O102        O  0.09230537  0.10649585  0.04246651    -0.74600
Mg103      Mg  0.07020395  0.51198527  0.10789387     1.58000
H104        H  0.06747401  0.13371924  0.06486941    -0.05600
C105        C  0.47677923  0.09552359  0.12898087     0.93500
O106        O  0.49445240  0.49868859  0.12745607    -0.81900
C107        C  0.51123520  0.47744162  0.12924118     0.93600
O108        O  0.50015267  0.12926901  0.49746465    -0.81800
Mg109      Mg  0.10630259  0.07071145  0.51204079     1.58200
O110        O  0.48306627  0.06920420  0.12635966    -0.80200
O111        O  0.12782075  0.49576671  0.50305561    -0.81900
N112        N  0.10908219  0.15478645  0.47522150    -0.02600
C113        C  0.10064141  0.17726862  0.49119738     0.00000
C114        C  0.11892878  0.19977598  0.48881321    -0.22900
C115        C  0.13977279  0.19138939  0.47072270    -0.23100
C116        C  0.13406586  0.16348216  0.46285570    -0.00100
H117        H  0.11725922  0.22017909  0.49923541     0.13700
H118        H  0.15685115  0.20497834  0.46359125     0.13700
N119        N  0.47269944  0.10662395  0.15732798    -0.02600
C120        C  0.48836469  0.09717672  0.17949266     0.00000
C121        C  0.48401362  0.11307280  0.20345411    -0.22900
C122        C  0.46497947  0.13354508  0.19620554    -0.23100
C123        C  0.45857277  0.12996355  0.16758177    -0.00100
H124        H  0.49379242  0.11016230  0.22402567     0.13700
H125        H  0.45659542  0.14898479  0.21093631     0.13700
N126        N  0.15420109  0.47602943  0.10948253    -0.02600
C127        C  0.17446531  0.49534997  0.10229235     0.00000
C128        C  0.19394252  0.49872530  0.12363464    -0.22900
C129        C  0.18604780  0.48069278  0.14486791    -0.23100
C130        C  0.16180204  0.46622993  0.13592909    -0.00100
H131        H  0.21240015  0.51243357  0.12350923     0.13700
H132        H  0.19771038  0.47853165  0.16444455     0.13700
O133        O  0.99369958  0.31041154  0.30459997    -0.87500
C134        C  0.44231171  0.29991073  0.23768928     0.88600
Mg135      Mg  0.02263382  0.34478574  0.30630468     1.58100
O136        O  0.99773384  0.25104715  0.24132739    -0.87200
O137        O  0.99406547  0.26367520  0.30619030    -0.74500
C138        C  0.08020792  0.34554230  0.17758063     0.93600
O139        O  0.46469106  0.35649921  0.26411279    -0.74300
O140        O  0.07869071  0.36242316  0.19861494    -0.81800
Mg141      Mg  0.45070401  0.32071357  0.29453879     1.58000
C142        C  0.04577292  0.22745407  0.17733766     0.93500
O143        O  0.43823503  0.28587410  0.32670818    -0.80100
H144        H  0.01908471  0.22174245  0.26339923    -0.05400
C145        C  0.00827746  0.31759172  0.18967303     0.88500
O146        O  0.05882118  0.31523910  0.29177086    -0.74600
O147        O  0.45356926  0.29180383  0.26007001    -0.87400
O148        O  0.01975811  0.22930244  0.18439695    -0.80200
C149        C  0.43074660  0.22818260  0.20957501     0.93700
C150        C  0.43037381  0.25999218  0.32640632     0.93500
Mg151      Mg  0.05917899  0.28470082  0.21198141     1.58000
O152        O  0.07392802  0.31922162  0.18020458    -0.80100
O153        O  0.04446480  0.24963620  0.24255946    -0.74300
O154        O  0.43267261  0.23460110  0.23579821    -0.80200
O155        O  0.44529765  0.35486654  0.32862943    -0.81900
O156        O  0.07767175  0.37302815  0.26710235    -0.80200
C157        C  0.02018030  0.23983542  0.24934536     0.88000
O158        O  0.05701231  0.31504503  0.24507294    -0.87400
O159        O  0.01644632  0.29539720  0.20123643    -0.87500
O160        O  0.01517368  0.34205491  0.19880582    -0.74500
Mg161      Mg  0.46385542  0.24902193  0.27042309     1.58000
O162        O  0.45239268  0.22912216  0.19352191    -0.81900
H163        H  0.01563366  0.28875579  0.33382919    -0.05600
O164        O  0.01151343  0.35468670  0.26352217    -0.87200
H165        H  0.48951481  0.38372692  0.24170749    -0.05400
H166        H  0.08712282  0.29443597  0.26678296    -0.05600
C167        C  0.48881668  0.36586654  0.25608029     0.87900
C168        C  0.00152386  0.28786785  0.31576264     0.88500
C169        C  0.06860117  0.30795781  0.26762418     0.88600
H170        H  0.99387897  0.31610041  0.17187513    -0.05600
O171        O  0.45173089  0.29271212  0.21339187    -0.74600
Mg172      Mg  0.04544307  0.35753026  0.23368360     1.58000
H173        H  0.42444210  0.31428021  0.23883833    -0.05600
C174        C  0.46074937  0.37700698  0.32829750     0.93500
O175        O  0.05685284  0.37928451  0.30909714    -0.81900
C176        C  0.07860221  0.38090409  0.29297220     0.93600
O177        O  0.42919741  0.24576394  0.30352959    -0.81800
Mg178      Mg  0.98680196  0.26198890  0.19868401     1.58200
O179        O  0.98690681  0.37562712  0.32089764    -0.80200
O180        O  0.06255233  0.24870478  0.17911504    -0.81900
N181        N  0.40281667  0.22603174  0.19709583    -0.02600
C182        C  0.38255694  0.24535889  0.20428321     0.00000
C183        C  0.36309564  0.24875231  0.18292982    -0.22900
C184        C  0.37099439  0.23072530  0.16169207    -0.23100
C185        C  0.39522605  0.21624588  0.17064047    -0.00100
H186        H  0.34464499  0.26247039  0.18304907     0.13700
H187        H  0.35934652  0.22858010  0.14210974     0.13700
N188        N  0.08429239  0.35663766  0.14923336    -0.02600
C189        C  0.06862665  0.34719017  0.12706979     0.00000
C190        C  0.07297984  0.36308346  0.10310727    -0.22900
C191        C  0.09201803  0.38355378  0.11035516    -0.23100
C192        C  0.09842395  0.37997309  0.13897925    -0.00100
H193        H  0.06320161  0.36017134  0.08253550     0.13700
H194        H  0.10040592  0.39899060  0.09562372     0.13700
N195        N  0.44791851  0.40478813  0.33136003    -0.02600
C196        C  0.45635709  0.42726883  0.31538191     0.00000
C197        C  0.43806593  0.44977324  0.31776037    -0.22900
C198        C  0.41722142  0.44138626  0.33584994    -0.23100
C199        C  0.42293200  0.41348140  0.34372156    -0.00100
H200        H  0.43973296  0.47017438  0.30733449     0.13700
H201        H  0.40013982  0.45497317  0.34297690     0.13700
O202        O  0.10141063  0.99631792  0.27423264    -0.87500
C203        C  0.02199124  0.99221452  0.30819100     0.88600
Mg204      Mg  0.11462567  0.03554013  0.25582488     1.59700
O205        O  0.03219971  0.45391375  0.24562629    -0.87200
O206        O  0.09443039  0.45075058  0.26663662    -0.74500
C207        C  0.50918596  0.07427989  0.17904153     0.93600
O208        O  0.06367143  0.04462299  0.30499263    -0.74300
O209        O  0.03517353  0.08065693  0.18151590    -0.81800
Mg210      Mg  0.08336503  0.00079275  0.31535756     1.58000
C211        C  0.47781976  0.45993443  0.18159212     0.93500
O212        O  0.10540987  0.45706644  0.32481600    -0.80100
H213        H  0.05287806  0.42547958  0.22162318    -0.05400
C214        C  0.49751180  0.03257009  0.24172956     0.88500
O215        O  0.10576834  0.01572742  0.21122820    -0.74600
O216        O  0.04495035  0.48288741  0.29927191    -0.87400
O217        O  0.48264356  0.44917114  0.20579520    -0.80200
C218        C  0.48014304  0.42843829  0.29547803     0.93700
C219        C  0.09479879  0.43256843  0.32907585     0.93500
Mg220      Mg  0.02092175  0.00556089  0.19059757     1.58000
O221        O  0.50047509  0.04890945  0.18174512    -0.80100
O222        O  0.04056381  0.46097005  0.20020479    -0.74300
O223        O  0.00527597  0.43145140  0.30497360    -0.80200
O224        O  0.12174527  0.02359063  0.33255346    -0.81900
O225        O  0.10007808  0.07395553  0.19896471    -0.80200
C226        C  0.04236288  0.44585583  0.22267334     0.88000
O227        O  0.06035731  0.02357926  0.20366392    -0.87400
O228        O  0.50685666  0.00982933  0.23235197    -0.87500
O229        O  0.01181364  0.05548094  0.24004485    -0.74500
Mg230      Mg  0.04945995  0.44102564  0.28543227     1.58000
O231        O  0.47439207  0.43192752  0.26949611    -0.81900
H232        H  0.13028180  0.47185828  0.25472202    -0.05600
O233        O  0.07283131  0.04961030  0.25957593    -0.87200
H234        H  0.05268995  0.07953290  0.28211451    -0.05400
H235        H  0.08494053  0.00328265  0.17544415    -0.05600
C236        C  0.06274856  0.05891157  0.28204485     0.87900
C237        C  0.10964713  0.47315057  0.26475433     0.88500
C238        C  0.08352241  0.01373180  0.19582953     0.88600
H239        H  0.47679628  0.03296759  0.25163575    -0.05600
O240        O  0.49933270  0.99050056  0.29350357    -0.74600
Mg241      Mg  0.05612377  0.06494723  0.22064171     1.58000
H242        H  0.02119279  0.00213921  0.32885588    -0.05600
C243        C  0.12580515  0.04898017  0.32445669     0.93500
O244        O  0.12613358  0.07811622  0.23692921    -0.81900
C245        C  0.12409035  0.07889543  0.21028930     0.93600
O246        O  0.06814293  0.42975376  0.32827111    -0.81800
Mg247      Mg  0.49084135  0.47108922  0.24916985     1.58200
O248        O  0.12339502  0.05620668  0.29864635    -0.80200
O249        O  0.47832427  0.48655154  0.17899131    -0.81900
N250        N  0.11229629  0.40755537  0.32609299    -0.02600
C251        C  0.10676891  0.38838186  0.30515523     0.00000
C252        C  0.13090889  0.37350950  0.29815201    -0.22900
C253        C  0.15204680  0.38309012  0.31563220    -0.23100
C254        C  0.14032761  0.40358141  0.33331743    -0.00100
H255        H  0.13257244  0.35638625  0.28295682     0.13700
H256        H  0.17344779  0.37475232  0.31610509     0.13700
N257        N  0.14972646  0.07700359  0.19368391    -0.02600
C258        C  0.16937964  0.05671622  0.19967198     0.00000
C259        C  0.18577832  0.05085866  0.17624067    -0.22900
C260        C  0.17661056  0.06857075  0.15511733    -0.23100
C261        C  0.15483168  0.08516556  0.16621551    -0.00100
H262        H  0.20349330  0.03627073  0.17507273     0.13700
H263        H  0.18583708  0.06978043  0.13412233     0.13700
N264        N  0.48004250  0.44262502  0.15651507    -0.02600
C265        C  0.50007264  0.44887798  0.13665329     0.00000
C266        C  0.50872955  0.42471634  0.12272488    -0.22900
C267        C  0.49296329  0.40282770  0.13354633    -0.23100
C268        C  0.47475746  0.41408997  0.15392024    -0.00100
H269        H  0.52428237  0.42326609  0.10585259     0.13700
H270        H  0.49420761  0.38116694  0.12618288     0.13700
O271        O  0.31189830  0.30683985  0.99293629    -0.87500
C272        C  0.30073498  0.23926439  0.44233815     0.88600
Mg273      Mg  0.34569252  0.30826473  0.02251070     1.58100
O274        O  0.25332056  0.24444651  0.99875284    -0.87200
O275        O  0.26521314  0.30932156  0.99298857    -0.74500
C276        C  0.34755455  0.17939270  0.07850643     0.93600
O277        O  0.35814834  0.26606229  0.46437450    -0.74300
O278        O  0.36425287  0.20055586  0.07686184    -0.81800
Mg279      Mg  0.32252186  0.29641536  0.45004911     1.58000
C280        C  0.23140587  0.18037864  0.04946211     0.93500
O281        O  0.28723860  0.32859930  0.43647579    -0.80100
H282        H  0.22440048  0.26658456  0.02067371    -0.05400
C283        C  0.31943789  0.19173582  0.00790111     0.88500
O284        O  0.31581259  0.29357062  0.05815867    -0.74600
O285        O  0.29314257  0.26208426  0.45313769    -0.87400
O286        O  0.23070833  0.18887736  0.02377333    -0.80200
C287        C  0.22892929  0.21129229  0.43299041     0.93700
C288        C  0.26123947  0.32799499  0.42856116     0.93500
Mg289      Mg  0.28741012  0.21351646  0.05935195     1.58000
O290        O  0.32126467  0.18190529  0.07288510    -0.80100
O291        O  0.25174890  0.24426187  0.04543281    -0.74300
O292        O  0.23585614  0.23746722  0.43316043    -0.80200
O293        O  0.35802370  0.32992399  0.44504265    -0.81900
O294        O  0.37385785  0.26856631  0.07733636    -0.80200
C295        C  0.24228220  0.25221336  0.02137164     0.88000
O296        O  0.31678842  0.24690952  0.05664629    -0.87400
O297        O  0.29750890  0.20344848  0.01662574    -0.87500
O298        O  0.34407736  0.20095152  0.01403606    -0.74500
Mg299      Mg  0.25047884  0.27277426  0.46386676     1.58000
O300        O  0.22890785  0.19717407  0.45586201    -0.81900
H301        H  0.29070163  0.33725116  0.01369662    -0.05600
O302        O  0.35610092  0.26573325  0.01110968    -0.87200
H303        H  0.38564199  0.24425580  0.48937836    -0.05400
H304        H  0.29547877  0.26830657  0.08650304    -0.05600
C305        C  0.36755553  0.25837146  0.48853685     0.87900
C306        C  0.28953955  0.31872166  0.00023399     0.88500
C307        C  0.30913850  0.26934897  0.06808516     0.88600
H308        H  0.31754378  0.17377923  0.99374601    -0.05600
O309        O  0.29307384  0.21528315  0.45230946    -0.74600
Mg310      Mg  0.35917270  0.23573110  0.04453922     1.58000
H311        H  0.31490014  0.23972669  0.42426954    -0.05600
C312        C  0.37926825  0.33068510  0.46181868     0.93500
O313        O  0.37964505  0.31085940  0.05707435    -0.81900
C314        C  0.38111922  0.29454912  0.07863694     0.93600
O315        O  0.24693220  0.30510695  0.42851732    -0.81800
Mg316      Mg  0.26294367  0.20150554  0.98858317     1.58200
O317        O  0.37676892  0.32333853  0.98782307    -0.80200
O318        O  0.25451971  0.17891579  0.06318094    -0.81900
N319        N  0.22814310  0.19635464  0.40614409    -0.02600
C320        C  0.24873966  0.20196598  0.38661131     0.00000
C321        C  0.25566112  0.17813862  0.37128381    -0.22900
C322        C  0.23833909  0.15692866  0.38079759    -0.23100
C323        C  0.22087108  0.16841401  0.40160133    -0.00100
H324        H  0.27080341  0.17674339  0.35405700     0.13700
H325        H  0.23754631  0.13568926  0.37210953     0.13700
N326        N  0.35914734  0.15120188  0.08094231    -0.02600
C327        C  0.35201931  0.13098145  0.06160678     0.00000
C328        C  0.37289089  0.11084023  0.05915397    -0.22900
C329        C  0.39370142  0.11831714  0.07781768    -0.23100
C330        C  0.38487635  0.14291144  0.09171254    -0.00100
H331        H  0.37272079  0.09227206  0.04562944     0.13700
H332        H  0.41307576  0.10637986  0.08060505     0.13700
N333        N  0.40764954  0.33607600  0.45125814    -0.02600
C334        C  0.43065393  0.32157863  0.46089845     0.00000
C335        C  0.45532989  0.33080215  0.44853370    -0.22900
C336        C  0.44770913  0.35144083  0.42990292    -0.23100
C337        C  0.41822550  0.35380651  0.43073314    -0.00100
H338        H  0.47666228  0.32332324  0.45267430     0.13700
H339        H  0.46260574  0.36328857  0.41707386     0.13700
O340        O  0.02480066  0.20392318  0.06095581    -0.87500
C341        C  0.05948785  0.28257777  0.06484659     0.88600
Mg342      Mg  0.00753995  0.19103165  0.02115165     1.58100
O343        O  0.99664125  0.27358924  0.10290951    -0.87200
O344        O  0.01643510  0.21098046  0.10637691    -0.74500
C345        C  0.43118423  0.29897467  0.48211878     0.93600
O346        O  0.05766754  0.24050627  0.01307795    -0.74300
O347        O  0.43524795  0.27358382  0.47402710    -0.81800
Mg348      Mg  0.06616027  0.22109478  0.05741053     1.58000
C349        C  0.43290559  0.32890649  0.09628317     0.93500
O350        O  0.07435685  0.19917478  0.10078418    -0.80100
H351        H  0.47205794  0.25330028  0.13113433    -0.05400
C352        C  0.99424561  0.30891852  0.02452750     0.88500
O353        O  0.46256996  0.20075837  0.03994871    -0.74600
O354        O  0.05014626  0.25983673  0.07422726    -0.87400
O355        O  0.45691765  0.32396720  0.10760818    -0.80200
C356        C  0.04780835  0.32429148  0.12752483     0.93700
C357        C  0.07917948  0.20993865  0.12498754     0.93500
Mg358      Mg  0.44236980  0.28554871  0.05075182     1.58000
O359        O  0.43359563  0.30620804  0.00792757    -0.80100
O360        O  0.45122855  0.26574242  0.09535083    -0.74300
O361        O  0.05652187  0.29892156  0.12482586    -0.80200
O362        O  0.08260837  0.18193078  0.03708418    -0.81900
O363        O  0.45158828  0.20706115  0.48176916    -0.80200
C364        C  0.47347566  0.26374588  0.11074747     0.88000
O365        O  0.45558625  0.24632408  0.03234876    -0.87400
O366        O  0.48416395  0.29961910  0.04699730    -0.87500
O367        O  0.99332278  0.29462676  0.50158121    -0.74500
Mg368      Mg  0.03607704  0.25557113  0.11597988     1.58000
O369        O  0.02181991  0.33066459  0.12505576    -0.81900
H370        H  0.00412286  0.17548853  0.08495826    -0.05600
O371        O  0.01204910  0.23289301  0.50731021    -0.87200
H372        H  0.03580628  0.25214732  0.47772775    -0.05400
H373        H  0.42671883  0.22186488  0.05186462    -0.05600
C374        C  0.03500827  0.24222118  0.49839162     0.87900
C375        C  0.01463737  0.19586533  0.08390846     0.88500
C376        C  0.44735207  0.22315744  0.04183039     0.88600
H377        H  0.00430305  0.32954081  0.02445579    -0.05600
O378        O  0.04518298  0.30548700  0.06652807    -0.74600
Mg379      Mg  0.47363132  0.25079246  0.49122349     1.58000
H380        H  0.08020306  0.28297692  0.05494009    -0.05600
C381        C  0.07685610  0.17843928  0.51110265     0.93500
O382        O  0.48885707  0.17975157  0.47831504    -0.81900
C383        C  0.46220122  0.18256438  0.47750650     0.93600
O384        O  0.07867414  0.23655647  0.12758828    -0.81800
Mg385      Mg  0.00087251  0.31495621  0.08593078     1.58200
O386        O  0.05172309  0.18145458  0.50160836    -0.80200
O387        O  0.43086369  0.32812792  0.06964315    -0.81900
N388        N  0.40726886  0.32700996  0.11288729    -0.02600
C389        C  0.38762138  0.30671644  0.10690085     0.00000
C390        C  0.37121844  0.30086190  0.13032948    -0.22900
C391        C  0.38037820  0.31858158  0.15145036    -0.23100
C392        C  0.40215619  0.33517784  0.14035256    -0.00100
H393        H  0.35350448  0.28627246  0.13149597     0.13700
H394        H  0.37114736  0.31979423  0.17244323     0.13700
N395        N  0.07695823  0.19262927  0.15006509    -0.02600
C396        C  0.05693844  0.19888963  0.16993502     0.00000
C397        C  0.04828793  0.17473392  0.18387664    -0.22900
C398        C  0.06404583  0.15284053  0.17305365    -0.23100
C399        C  0.08224196  0.16409373  0.15266562    -0.00100
H400        H  0.03274284  0.17329053  0.20075640     0.13700
H401        H  0.06280029  0.13118255  0.18042456     0.13700
N402        N  0.44470472  0.15754800  0.48047491    -0.02600
C403        C  0.45023539  0.13836006  0.50139803     0.00000
C404        C  0.42609893  0.12347783  0.50839065    -0.22900
C405        C  0.40495856  0.13306822  0.49092103    -0.23100
C406        C  0.41667317  0.15357341  0.47324941    -0.00100
H407        H  0.42443874  0.10634426  0.52357421     0.13700
H408        H  0.38355812  0.12472815  0.49044639     0.13700
O409        O  0.30420803  0.06459653  0.99606519    -0.87500
C410        C  0.23649028  0.11625995  0.00613278     0.88600
Mg411      Mg  0.30747797  0.03570752  0.46189706     1.58100
O412        O  0.24039833  0.06017632  0.05395599    -0.87200
O413        O  0.30540645  0.06447086  0.04275359    -0.74500
C414        C  0.17916948  0.47951964  0.45745976     0.93600
O415        O  0.26429073  0.09345868  0.44918657    -0.74300
O416        O  0.20112234  0.47946066  0.44173117    -0.81800
Mg417      Mg  0.29370229  0.10737654  0.98560058     1.58000
C418        C  0.17772347  0.01003113  0.07479441     0.93500
O419        O  0.32519740  0.12008783  0.02071397    -0.80100
H420        H  0.26184366  0.03855731  0.08356221    -0.05400
C421        C  0.19025887  0.05037286  0.48612384     0.88500
O422        O  0.29252540  0.49959094  0.99118263    -0.74600
O423        O  0.25876571  0.10451004  0.01393275    -0.87400
O424        O  0.18505354  0.03605274  0.07491625    -0.80200
C425        C  0.20777930  0.12672351  0.07736366     0.93700
C426        C  0.32475869  0.12801692  0.04654421     0.93500
Mg427      Mg  0.21168767  0.49946628  0.01885297     1.58000
O428        O  0.18090929  0.48604401  0.98365279    -0.80100
O429        O  0.24131782  0.51347887  0.05516220    -0.74300
O430        O  0.23391263  0.12490133  0.07052158    -0.80200
O431        O  0.32828771  0.11237188  0.45252716    -0.81900
O432        O  0.26955694  0.48078770  0.43375958    -0.80200
C433        C  0.24817073  0.03764948  0.06516332     0.88000
O434        O  0.24587849  0.50193173  0.99012022    -0.87400
O435        O  0.20131860  0.04224832  0.00861195    -0.87500
O436        O  0.19997613  0.04331787  0.46188349    -0.74500
Mg437      Mg  0.26903434  0.09424145  0.05669740     1.58000
O438        O  0.19182977  0.10494417  0.07695465    -0.81900
H439        H  0.33361906  0.04321104  0.01801625    -0.05600
O440        O  0.26493135  0.04672713  0.45070600    -0.87200
H441        H  0.24353640  0.06830719  0.42105096    -0.05400
H442        H  0.26667635  0.47159380  0.01132683    -0.05600
C443        C  0.25731424  0.06925378  0.43936408     0.87900
C444        C  0.31531825  0.05704162  0.01870182     0.88500
C445        C  0.26809171  0.49008505  0.99783496     0.88600
H446        H  0.17225863  0.06458804  0.48713563    -0.05600
O447        O  0.21205658  0.10697708  0.01321031    -0.74600
Mg448      Mg  0.23551002  0.01293729  0.44742601     1.58000
H449        H  0.23783892  0.13452168  0.99230659    -0.05600
C450        C  0.32921158  0.09710381  0.43030627     0.93500
O451        O  0.31146749  0.50186212  0.42754152    -0.81900
C452        C  0.29561262  0.47995224  0.42647957     0.93600
O453        O  0.30175212  0.12922353  0.06061380    -0.81800
Mg454      Mg  0.19771706  0.07089891  0.04306230     1.58200
O455        O  0.32254783  0.07085054  0.43125960    -0.80200
O456        O  0.17695494  0.49561130  0.05198364    -0.81900
N457        N  0.33110667  0.11065569  0.40286420    -0.02600
C458        C  0.31089913  0.10510896  0.38281883     0.00000
C459        C  0.30811789  0.12727240  0.36421356    -0.22900
C460        C  0.32727027  0.14734715  0.37243205    -0.23100
C461        C  0.34198462  0.13687223  0.39586852    -0.00100
H462        H  0.29409921  0.12840006  0.34605129     0.13700
H463        H  0.32975627  0.16755782  0.36190522     0.13700
N464        N  0.19567981  0.15466745  0.08087460    -0.02600
C465        C  0.20453108  0.17734983  0.06522386     0.00000
C466        C  0.18652645  0.20000900  0.06836984    -0.22900
C467        C  0.16567552  0.19145148  0.08654789    -0.23100
C468        C  0.17097766  0.16325297  0.09373475    -0.00100
H469        H  0.18899945  0.22099590  0.05935682     0.13700
H470        H  0.14899739  0.20521268  0.09424157     0.13700
N471        N  0.15128470  0.47752162  0.44486429    -0.02600
C472        C  0.12967034  0.49494122  0.45294042     0.00000
C473        C  0.10808900  0.49481828  0.43336985    -0.22900
C474        C  0.11620516  0.47658347  0.41237795    -0.23100
C475        C  0.14302150  0.46622721  0.41935495    -0.00100
H476        H  0.08796997  0.50585295  0.43485600     0.13700
H477        H  0.10291711  0.47082696  0.39459385     0.13700
O478        O  0.31112353  0.25194085  0.31645575    -0.87500
C479        C  0.29967337  0.31926137  0.36721391     0.88600
Mg480      Mg  0.34531884  0.24947262  0.28772581     1.58100
O481        O  0.25278432  0.31459550  0.31051035    -0.87200
O482        O  0.26447659  0.24959259  0.31539127    -0.74500
C483        C  0.34921497  0.37672152  0.22921083     0.93600
O484        O  0.35701389  0.29333731  0.34469689    -0.74300
O485        O  0.36516650  0.35494425  0.22962026    -0.81800
Mg486      Mg  0.32148359  0.26295081  0.35915136     1.58000
C487        C  0.23224055  0.37800836  0.26002658     0.93500
O488        O  0.28743833  0.23079356  0.37281428    -0.80100
H489        H  0.22337767  0.29320497  0.28855730    -0.05400
C490        C  0.32050176  0.36626339  0.30044247     0.88500
O491        O  0.31569212  0.26347604  0.25141253    -0.74600
O492        O  0.29205883  0.29673432  0.35586991    -0.87400
O493        O  0.23179780  0.37008443  0.28585817    -0.80200
C494        C  0.22777989  0.34709723  0.37627194     0.93700
C495        C  0.26138205  0.22995565  0.38009300     0.93500
Mg496      Mg  0.28796460  0.34423362  0.24987811     1.58000
O497        O  0.32308203  0.37489656  0.23605290    -0.80100
O498        O  0.25159365  0.31446124  0.26382159    -0.74300
O499        O  0.23444231  0.32084441  0.37531504    -0.80200
O500        O  0.35587659  0.22948447  0.36484959    -0.81900
O501        O  0.37195786  0.28605648  0.23166544    -0.80200
C502        C  0.24167776  0.30703633  0.28787283     0.88000
O503        O  0.31660442  0.31017278  0.25262315    -0.87400
O504        O  0.29822772  0.35450999  0.29264276    -0.87500
O505        O  0.34493658  0.35698327  0.29336562    -0.74500
Mg506      Mg  0.24951569  0.28570674  0.34467686     1.58000
O507        O  0.22870662  0.36236900  0.35405363    -0.81900
H508        H  0.29033040  0.22159995  0.29524699    -0.05600
O509        O  0.35568595  0.29225680  0.29796760    -0.87200
H510        H  0.38473597  0.31460654  0.31944914    -0.05400
H511        H  0.29516808  0.28855191  0.22301047    -0.05600
C512        C  0.36673756  0.30038805  0.32045797     0.87900
C513        C  0.28891202  0.24009085  0.30873944     0.88500
C514        C  0.30883755  0.28764553  0.24141204     0.88600
H515        H  0.31915094  0.38452636  0.31426793    -0.05600
O516        O  0.29269914  0.34346557  0.35739019    -0.74600
Mg517      Mg  0.35928405  0.32090399  0.26351630     1.58000
H518        H  0.31344813  0.31831571  0.38552936    -0.05600
C519        C  0.37783052  0.22953812  0.34912234     0.93500
O520        O  0.38005431  0.24561354  0.25459403    -0.81900
C521        C  0.37929044  0.26003552  0.23178471     0.93600
O522        O  0.24552663  0.25186436  0.37903265    -0.81800
Mg523      Mg  0.26329004  0.35737691  0.32097491     1.58200
O524        O  0.37609442  0.23605740  0.32292822    -0.80200
O525        O  0.25524807  0.37921217  0.24595875    -0.81900
N526        N  0.36131296  0.40466658  0.22570395    -0.02600
C527        C  0.35246511  0.42734403  0.24136410     0.00000
C528        C  0.37047837  0.44999902  0.23823555    -0.22900
C529        C  0.39132959  0.44144521  0.22005619    -0.23100
C530        C  0.38601907  0.41325231  0.21285166    -0.00100
H531        H  0.36801108  0.47098151  0.24726089     0.13700
H532        H  0.40801327  0.45520581  0.21237398     0.13700
N533        N  0.22588138  0.36064380  0.40371658    -0.02600
C534        C  0.24608722  0.35509854  0.42376424     0.00000
C535        C  0.24885847  0.37725811  0.44237643    -0.22900
C536        C  0.22970196  0.39732840  0.43416007    -0.23100
C537        C  0.21499512  0.38685480  0.41071742    -0.00100
H538        H  0.26287375  0.37838641  0.46054126     0.13700
H539        H  0.22720987  0.41753598  0.44469165     0.13700
N540        N  0.40571325  0.22753644  0.36172039    -0.02600
C541        C  0.42733130  0.24495230  0.35364516     0.00000
C542        C  0.44890530  0.24483740  0.37322340    -0.22900
C543        C  0.44078151  0.22661011  0.39421826    -0.23100
C544        C  0.41396767  0.21624893  0.38723508    -0.00100
H545        H  0.46902467  0.25587239  0.37174094     0.13700
H546        H  0.45406525  0.22086138  0.41200789     0.13700
O547        O  0.24021043  0.99690704  0.24993708    -0.87500
C548        C  0.18944245  0.00836318  0.31804360     0.88600
Mg549      Mg  0.26958585  0.46351118  0.24723263     1.58100
O550        O  0.24509500  0.05683765  0.31365259    -0.87200
O551        O  0.24119073  0.04356888  0.24843312    -0.74500
C552        C  0.32807770  0.46129979  0.37358547     0.93600
O553        O  0.21291741  0.45095155  0.29254359    -0.74300
O554        O  0.32810140  0.44718523  0.35071137    -0.81800
Mg555      Mg  0.19782337  0.98572907  0.26203740     1.58000
C556        C  0.29575397  0.07800123  0.37801944     0.93500
O557        O  0.18314322  0.01856674  0.22923812    -0.80100
H558        H  0.26628645  0.08725417  0.29289550    -0.05400
C559        C  0.25627212  0.48926541  0.36424949     0.88500
O560        O  0.30525048  0.99425707  0.26114741    -0.74600
O561        O  0.20089241  0.01573051  0.29547008    -0.87400
O562        O  0.26975239  0.07859821  0.37011224    -0.80200
C563        C  0.17772370  0.08067598  0.34476787     0.93700
C564        C  0.17588393  0.04455024  0.22793709     0.93500
Mg565      Mg  0.30652179  0.02277948  0.34271226     1.58000
O566        O  0.32115056  0.98747473  0.37341911    -0.80100
O567        O  0.29178013  0.05932415  0.31359408    -0.74300
O568        O  0.18022648  0.07333456  0.31876190    -0.80200
O569        O  0.19274071  0.45054859  0.22971311    -0.81900
O570        O  0.32628578  0.43887646  0.28280993    -0.80200
C571        C  0.26745189  0.06872315  0.30635471     0.88000
O572        O  0.30367847  0.99444852  0.30782711    -0.87400
O573        O  0.26386010  0.01208466  0.35344638    -0.87500
O574        O  0.26393318  0.46528412  0.35427844    -0.74500
Mg575      Mg  0.21130468  0.05826252  0.28407483     1.58000
O576        O  0.19896433  0.07990754  0.36154869    -0.81900
H577        H  0.26153148  0.01830744  0.22009152    -0.05600
O578        O  0.25948679  0.45344833  0.28996062    -0.87200
H579        H  0.23944760  0.42378376  0.31284240    -0.05400
H580        H  0.33259997  0.01658243  0.28590427    -0.05600
C581        C  0.23755607  0.44173781  0.29868457     0.87900
C582        C  0.24786601  0.01934798  0.23850489     0.88500
C583        C  0.31471754  0.00221204  0.28520771     0.88600
H584        H  0.24211030  0.48972830  0.38232066    -0.05600
O585        O  0.19885298  0.01604968  0.34220661    -0.74600
Mg586      Mg  0.29405670  0.45150808  0.31800011     1.58000
H587        H  0.17135733  0.99424487  0.31720188    -0.05600
C588        C  0.20943868  0.42938489  0.22807520     0.93500
O589        O  0.30247510  0.42890824  0.24340356    -0.81900
C590        C  0.32558878  0.43037325  0.25712276     0.93600
O591        O  0.17735843  0.06086092  0.24950062    -0.81800
Mg592      Mg  0.23447398  0.04640805  0.35653784     1.58200
O593        O  0.23572743  0.43189957  0.23370242    -0.80200
O594        O  0.31006836  0.05511768  0.37805724    -0.81900
N595        N  0.19784847  0.40119209  0.22563471    -0.02600
C596        C  0.20498406  0.38096381  0.24495791     0.00000
C597        C  0.18413184  0.36079944  0.24738158    -0.22900
C598        C  0.16332469  0.36827026  0.22871293    -0.23100
C599        C  0.17213128  0.39288660  0.21484485    -0.00100
H600        H  0.18431393  0.34221906  0.26088869     0.13700
H601        H  0.14396633  0.35631164  0.22590588     0.13700
N602        N  0.14934193  0.08607491  0.35532219    -0.02600
C603        C  0.12633431  0.07158995  0.34567139     0.00000
C604        C  0.10165713  0.08083049  0.35802201    -0.22900
C605        C  0.10928158  0.10146590  0.37665690    -0.23100
C606        C  0.13876673  0.10381312  0.37584052    -0.00100
H607        H  0.08032240  0.07336374  0.35387111     0.13700
H608        H  0.09438800  0.11332384  0.38948040     0.13700
N609        N  0.32885698  0.44635689  0.40042872    -0.02600
C610        C  0.30825362  0.45196340  0.41995552     0.00000
C611        C  0.30132204  0.42813097  0.43527056    -0.22900
C612        C  0.31864647  0.40692299  0.42575700    -0.23100
C613        C  0.33612386  0.41841407  0.40496507    -0.00100
H614        H  0.28617241  0.42673120  0.45249015     0.13700
H615        H  0.31943543  0.38568088  0.43443837     0.13700
C616        C  0.15184787  0.14904818  0.44082599     0.04000
C617        C  0.17916710  0.15973454  0.43507448    -0.12100
C618        C  0.19342267  0.15401502  0.40959579     0.01500
C619        C  0.18023451  0.13523935  0.39014531    -0.10700
C620        C  0.15424165  0.12210298  0.39655332     0.04000
C621        C  0.14039885  0.12922525  0.42222419    -0.10100
H622        H  0.18843337  0.17335160  0.45043693     0.09600
H623        H  0.18928645  0.13209716  0.36933429     0.07100
H624        H  0.11976855  0.12068468  0.42705637     0.07000
C625        C  0.40275293  0.37210362  0.91002382     0.04000
C626        C  0.37676047  0.38524253  0.91643078    -0.12100
C627        C  0.36357402  0.40401625  0.89697757     0.01500
C628        C  0.37782979  0.40973194  0.87149901    -0.10700
C629        C  0.40514944  0.39904784  0.86575063     0.04000
C630        C  0.41659676  0.37922581  0.88435300    -0.10100
H631        H  0.36770540  0.38210236  0.93724075     0.09600
H632        H  0.36856183  0.42334282  0.85613235     0.07100
H633        H  0.43722506  0.37068422  0.87951838     0.07000
C634        C  0.15664621  0.40477714  0.68950546     0.04000
C635        C  0.16519995  0.42965779  0.67539437    -0.12100
C636        C  0.15044451  0.44051342  0.65155636     0.01500
C637        C  0.12729801  0.42475049  0.64152305    -0.10700
C638        C  0.11943252  0.39856285  0.65376772     0.04000
C639        C  0.13433067  0.38895422  0.67741874    -0.10100
H640        H  0.18453201  0.43945012  0.68174588     0.09600
H641        H  0.11637315  0.43177538  0.62299266     0.07100
H642        H  0.12991486  0.36789238  0.68481659     0.07000
C643        C  0.41264133  0.36136295  0.65544111     0.04000
C644        C  0.43857006  0.37458828  0.64880477    -0.12100
C645        C  0.44859157  0.39844595  0.66398475     0.01500
C646        C  0.43210079  0.40819739  0.68669571    -0.10700
C647        C  0.40476376  0.39737396  0.69242500     0.04000
C648        C  0.39520536  0.37422503  0.67632599    -0.10100
H649        H  0.45053457  0.36708403  0.63115015     0.09600
H650        H  0.44000340  0.42500228  0.69959051     0.07100
H651        H  0.37360999  0.36712205  0.67898410     0.07000
C652        C  0.10839947  0.14844052  0.64259091     0.04000
C653        C  0.11841546  0.12457486  0.65776232    -0.12100
C654        C  0.14434461  0.11134971  0.65112621     0.01500
C655        C  0.16178269  0.12421464  0.63024506    -0.10700
C656        C  0.15222815  0.14736846  0.61415198     0.04000
C657        C  0.12489247  0.15819422  0.61988276    -0.10100
H658        H  0.10644844  0.11706477  0.67541220     0.09600
H659        H  0.18337779  0.11711193  0.62758790     0.07100
H660        H  0.11699521  0.17500500  0.60699427     0.07000
C661        C  0.43757093  0.14856116  0.65279452     0.04000
C662        C  0.42971794  0.17475418  0.66503956    -0.12100
C663        C  0.40657546  0.19052442  0.65501122     0.01500
C664        C  0.39181283  0.17967533  0.63117237    -0.10700
C665        C  0.40035942  0.15479095  0.61705916     0.04000
C666        C  0.42266534  0.13895711  0.62914548    -0.10100
H667        H  0.44065037  0.18177707  0.68356630     0.09600
H668        H  0.37249622  0.18946855  0.62482686     0.07100
H669        H  0.42706784  0.11789139  0.62174831     0.07000
C670        C  0.39967151  0.19345845  0.90436494     0.04000
C671        C  0.40970158  0.18742408  0.93183517    -0.12100
C672        C  0.40206602  0.16259550  0.94620590     0.01500
C673        C  0.38074795  0.14516281  0.93387747    -0.10700
C674        C  0.36715478  0.15267540  0.90830284     0.04000
C675        C  0.37884920  0.17567224  0.89283655    -0.10100
H676        H  0.42418304  0.20185804  0.94153238     0.09600
H677        H  0.37579586  0.12520845  0.94360293     0.07100
H678        H  0.37286388  0.17896596  0.87109127     0.07000
C679        C  0.15492943  0.41259125  0.86036845     0.04000
C680        C  0.17624270  0.39515302  0.87269599    -0.12100
C681        C  0.18982675  0.40265591  0.89827991     0.01500
C682        C  0.17812762  0.42564626  0.91375175    -0.10700
C683        C  0.15731510  0.44343927  0.90222182     0.04000
C684        C  0.14729241  0.43741619  0.87474627    -0.10100
H685        H  0.18119755  0.37520348  0.86296149     0.09600
H686        H  0.18410347  0.42893282  0.93550092     0.07100
H687        H  0.13281857  0.45185534  0.86505210     0.07000
O688        O  0.49998537  0.06502343  0.56148935    -0.87500
C689        C  0.06817697  0.11585851  0.55049649     0.88600
Mg690      Mg  0.49782196  0.03468103  0.59458460     1.58100
O691        O  0.06330985  0.06040223  0.00197710    -0.87200
O692        O  0.49818527  0.06521932  0.01479089    -0.74500
C693        C  0.12626877  0.47818560  0.59700866     0.93600
O694        O  0.04180819  0.09204414  0.60776682    -0.74300
O695        O  0.10462483  0.47912879  0.61306496    -0.81800
Mg696      Mg  0.51154500  0.10751214  0.57288156     1.58000
C697        C  0.12663698  0.50998901  0.98017628     0.93500
O698        O  0.47932498  0.12300580  0.53945389    -0.80100
H699        H  0.04138404  0.03874169  0.97274368    -0.05400
C700        C  0.11469414  0.04991203  0.56889194     0.88500
O701        O  0.51254760  0.49961560  0.56401077    -0.74600
O702        O  0.04548295  0.10467444  0.54305111    -0.87400
O703        O  0.11877427  0.03587035  0.97987134    -0.80200
C704        C  0.09625367  0.12700400  0.97828406     0.93700
C705        C  0.47839997  0.13088487  0.01358510     0.93500
Mg706      Mg  0.09315968  0.49901818  0.53615703     1.58000
O707        O  0.12433979  0.48460123  0.57078516    -0.80100
O708        O  0.06295207  0.51366585  0.00038589    -0.74300
O709        O  0.07009638  0.12562140  0.98568311    -0.80200
O710        O  0.47828664  0.11239984  0.60794263    -0.81900
O711        O  0.03725061  0.47929267  0.62218329    -0.80200
C712        C  0.05549110  0.03785685  0.99081282     0.88000
O713        O  0.05927847  0.50103675  0.56524947    -0.87400
O714        O  0.10344035  0.04180217  0.54651004    -0.87500
O715        O  0.10527192  0.04271441  0.59318821    -0.74500
Mg716      Mg  0.03437223  0.09477282  0.00026599     1.58000
O717        O  0.11170642  0.10486464  0.97794981    -0.81900
H718        H  0.46988301  0.04440836  0.53977166    -0.05600
O719        O  0.04055165  0.04538639  0.60533221    -0.87200
H720        H  0.06310630  0.06609618  0.63469966    -0.05400
H721        H  0.03793624  0.47172499  0.54317676    -0.05600
C722        C  0.04871111  0.06758315  0.61689881     0.87900
C723        C  0.48840233  0.05793422  0.53893519     0.88500
C724        C  0.03683513  0.48981929  0.55722920     0.88600
H725        H  0.13256281  0.06428379  0.56774487    -0.05600
O726        O  0.09230538  0.10649587  0.54246651    -0.74600
Mg727      Mg  0.07020393  0.51198528  0.60789389     1.58000
H728        H  0.06747402  0.13371939  0.56486949    -0.05600
C729        C  0.47677923  0.09552359  0.62898088     0.93500
O730        O  0.49445239  0.49868860  0.62745607    -0.81900
C731        C  0.51123520  0.47744164  0.62924118     0.93600
O732        O  0.50015266  0.12926898  0.99746467    -0.81800
Mg733      Mg  0.10630256  0.07071145  0.01204076     1.58200
O734        O  0.48306629  0.06920421  0.62635970    -0.80200
O735        O  0.12782076  0.49576674  0.00305559    -0.81900
N736        N  0.10908221  0.15478646  0.97522155    -0.02600
C737        C  0.10064143  0.17726863  0.99119744     0.00000
C738        C  0.11892880  0.19977600  0.98881329    -0.22900
C739        C  0.13977282  0.19138942  0.97072273    -0.23100
C740        C  0.13406587  0.16348217  0.96285574    -0.00100
H741        H  0.11725928  0.22017902  0.99923548     0.13700
H742        H  0.15685112  0.20497833  0.96359131     0.13700
N743        N  0.47269941  0.10662396  0.65732798    -0.02600
C744        C  0.48836462  0.09717671  0.67949267     0.00000
C745        C  0.48401357  0.11307277  0.70345416    -0.22900
C746        C  0.46497940  0.13354506  0.69620556    -0.23100
C747        C  0.45857272  0.12996355  0.66758178    -0.00100
H748        H  0.49379233  0.11016229  0.72402561     0.13700
H749        H  0.45659535  0.14898476  0.71093634     0.13700
N750        N  0.15420110  0.47602944  0.60948251    -0.02600
C751        C  0.17446533  0.49534999  0.60229234     0.00000
C752        C  0.19394248  0.49872531  0.62363466    -0.22900
C753        C  0.18604776  0.48069283  0.64486785    -0.23100
C754        C  0.16180205  0.46622995  0.63592908    -0.00100
H755        H  0.21240022  0.51243371  0.62350925     0.13700
H756        H  0.19771042  0.47853168  0.66444472     0.13700
O757        O  0.99369953  0.31041156  0.80459998    -0.87500
C758        C  0.44231176  0.29991069  0.73768928     0.88600
Mg759      Mg  0.02263379  0.34478576  0.80630466     1.58100
O760        O  0.99773388  0.25104720  0.74132739    -0.87200
O761        O  0.99406546  0.26367523  0.80619032    -0.74500
C762        C  0.08020793  0.34554231  0.67758062     0.93600
O763        O  0.46469112  0.35649920  0.76411276    -0.74300
O764        O  0.07869070  0.36242315  0.69861494    -0.81800
Mg765      Mg  0.45070403  0.32071357  0.79453878     1.58000
C766        C  0.04577296  0.22745407  0.67733764     0.93500
O767        O  0.43823508  0.28587410  0.82670819    -0.80100
H768        H  0.01908475  0.22174259  0.76339901    -0.05400
C769        C  0.00827744  0.31759174  0.68967302     0.88500
O770        O  0.05882110  0.31523908  0.79177083    -0.74600
O771        O  0.45356925  0.29180383  0.76007000    -0.87400
O772        O  0.01975815  0.22930245  0.68439694    -0.80200
C773        C  0.43074658  0.22818261  0.70957504     0.93700
C774        C  0.43037382  0.25999220  0.82640636     0.93500
Mg775      Mg  0.05917901  0.28470082  0.71198138     1.58000
O776        O  0.07392804  0.31922162  0.68020455    -0.80100
O777        O  0.04446485  0.24963619  0.74255940    -0.74300
O778        O  0.43267258  0.23460109  0.73579826    -0.80200
O779        O  0.44529768  0.35486654  0.82862942    -0.81900
O780        O  0.07767173  0.37302812  0.76710235    -0.80200
C781        C  0.02018034  0.23983538  0.74934534     0.88000
O782        O  0.05701229  0.31504502  0.74507291    -0.87400
O783        O  0.01644633  0.29539720  0.70123637    -0.87500
O784        O  0.01517365  0.34205491  0.69880585    -0.74500
Mg785      Mg  0.46385539  0.24902193  0.77042310     1.58000
O786        O  0.45239265  0.22912218  0.69352195    -0.81900
H787        H  0.01563366  0.28875585  0.83382932    -0.05600
O788        O  0.01151340  0.35468672  0.76352217    -0.87200
H789        H  0.48951489  0.38372682  0.74170761    -0.05400
H790        H  0.08712271  0.29443580  0.76678296    -0.05600
C791        C  0.48881674  0.36586657  0.75608028     0.87900
C792        C  0.00152380  0.28786789  0.81576265     0.88500
C793        C  0.06860109  0.30795776  0.76762416     0.88600
H794        H  0.99387894  0.31610045  0.67187512    -0.05600
O795        O  0.45173085  0.29271212  0.71339186    -0.74600
Mg796      Mg  0.04544305  0.35753026  0.73368360     1.58000
H797        H  0.42444186  0.31428045  0.73883836    -0.05600
C798        C  0.46074939  0.37700697  0.82829747     0.93500
O799        O  0.05685283  0.37928450  0.80909713    -0.81900
C800        C  0.07860220  0.38090407  0.79297220     0.93600
O801        O  0.42919738  0.24576396  0.80352963    -0.81800
Mg802      Mg  0.98680198  0.26198889  0.69868400     1.58200
O803        O  0.98690681  0.37562714  0.82089764    -0.80200
O804        O  0.06255238  0.24870477  0.67911501    -0.81900
N805        N  0.40281664  0.22603174  0.69709587    -0.02600
C806        C  0.38255690  0.24535887  0.70428325     0.00000
C807        C  0.36309558  0.24875235  0.68292984    -0.22900
C808        C  0.37099438  0.23072532  0.66169210    -0.23100
C809        C  0.39522604  0.21624591  0.67064049    -0.00100
H810        H  0.34464507  0.26247035  0.68304908     0.13700
H811        H  0.35934649  0.22858013  0.64210976     0.13700
N812        N  0.08429239  0.35663768  0.64923334    -0.02600
C813        C  0.06862667  0.34719019  0.62706977     0.00000
C814        C  0.07297985  0.36308345  0.60310718    -0.22900
C815        C  0.09201807  0.38355376  0.61035512    -0.23100
C816        C  0.09842397  0.37997310  0.63897921    -0.00100
H817        H  0.06320171  0.36017134  0.58253554     0.13700
H818        H  0.10040598  0.39899057  0.59562366     0.13700
N819        N  0.44791854  0.40478813  0.83135999    -0.02600
C820        C  0.45635710  0.42726883  0.81538187     0.00000
C821        C  0.43806592  0.44977325  0.81776029    -0.22900
C822        C  0.41722148  0.44138623  0.83584987    -0.23100
C823        C  0.42293202  0.41348139  0.84372152    -0.00100
H824        H  0.43973292  0.47017432  0.80733441     0.13700
H825        H  0.40013978  0.45497326  0.84297695     0.13700
O826        O  0.10141067  0.99631791  0.77423268    -0.87500
C827        C  0.02199125  0.99221446  0.80819100     0.88600
Mg828      Mg  0.11462570  0.03554013  0.75582489     1.59700
O829        O  0.03219967  0.45391375  0.74562628    -0.87200
O830        O  0.09443035  0.45075060  0.76663661    -0.74500
C831        C  0.50918593  0.07427990  0.67904154     0.93600
O832        O  0.06367145  0.04462296  0.80499262    -0.74300
O833        O  0.03517355  0.08065696  0.68151594    -0.81800
Mg834      Mg  0.08336503  0.00079273  0.81535758     1.58000
C835        C  0.47781977  0.45993443  0.68159211     0.93500
O836        O  0.10540984  0.45706646  0.82481601    -0.80100
H837        H  0.05287797  0.42547964  0.72162319    -0.05400
C838        C  0.49751176  0.03257008  0.74172955     0.88500
O839        O  0.10576837  0.01572742  0.71122820    -0.74600
O840        O  0.04495032  0.48288744  0.79927188    -0.87400
O841        O  0.48264356  0.44917113  0.70579519    -0.80200
C842        C  0.48014306  0.42843828  0.79547799     0.93700
C843        C  0.09479876  0.43256844  0.82907583     0.93500
Mg844      Mg  0.02092176  0.00556090  0.69059755     1.58000
O845        O  0.50047509  0.04890945  0.68174511    -0.80100
O846        O  0.04056374  0.46097001  0.70020476    -0.74300
O847        O  0.00527597  0.43145141  0.80497356    -0.80200
O848        O  0.12174525  0.02359062  0.83255347    -0.81900
O849        O  0.10007811  0.07395555  0.69896471    -0.80200
C850        C  0.04236283  0.44585580  0.72267332     0.88000
O851        O  0.06035735  0.02357928  0.70366390    -0.87400
O852        O  0.50685667  0.00982932  0.73235196    -0.87500
O853        O  0.01181370  0.05548095  0.74004485    -0.74500
Mg854      Mg  0.04945993  0.44102567  0.78543225     1.58000
O855        O  0.47439209  0.43192747  0.76949607    -0.81900
H856        H  0.13028159  0.47185830  0.75472205    -0.05600
O857        O  0.07283134  0.04961029  0.75957592    -0.87200
H858        H  0.05269000  0.07953278  0.78211451    -0.05400
H859        H  0.08494058  0.00328257  0.67544400    -0.05600
C860        C  0.06274857  0.05891157  0.78204484     0.87900
C861        C  0.10964714  0.47315058  0.76475431     0.88500
C862        C  0.08352244  0.01373183  0.69582956     0.88600
H863        H  0.47679636  0.03296757  0.75163566    -0.05600
O864        O  0.49933269  0.99050053  0.79350359    -0.74600
Mg865      Mg  0.05612381  0.06494724  0.72064171     1.58000
H866        H  0.02119280  0.00213918  0.82885601    -0.05600
C867        C  0.12580515  0.04898016  0.82445671     0.93500
O868        O  0.12613360  0.07811625  0.73692923    -0.81900
C869        C  0.12409038  0.07889546  0.71028931     0.93600
O870        O  0.06814289  0.42975378  0.82827109    -0.81800
Mg871      Mg  0.49084135  0.47108920  0.74916985     1.58200
O872        O  0.12339505  0.05620668  0.79864637    -0.80200
O873        O  0.47832427  0.48655153  0.67899130    -0.81900
N874        N  0.11229626  0.40755538  0.82609298    -0.02600
C875        C  0.10676889  0.38838185  0.80515522     0.00000
C876        C  0.13090888  0.37350951  0.79815206    -0.22900
C877        C  0.15204673  0.38309015  0.81563221    -0.23100
C878        C  0.14032758  0.40358142  0.83331743    -0.00100
H879        H  0.13257245  0.35638616  0.78295681     0.13700
H880        H  0.17344790  0.37475232  0.81610511     0.13700
N881        N  0.14972649  0.07700362  0.69368393    -0.02600
C882        C  0.16937966  0.05671624  0.69967199     0.00000
C883        C  0.18577836  0.05085864  0.67624068    -0.22900
C884        C  0.17661058  0.06857076  0.65511734    -0.23100
C885        C  0.15483171  0.08516558  0.66621553    -0.00100
H886        H  0.20349324  0.03627079  0.67507275     0.13700
H887        H  0.18583710  0.06978043  0.63412237     0.13700
N888        N  0.48004251  0.44262502  0.65651506    -0.02600
C889        C  0.50007265  0.44887799  0.63665329     0.00000
C890        C  0.50872959  0.42471635  0.62272485    -0.22900
C891        C  0.49296331  0.40282768  0.63354631    -0.23100
C892        C  0.47475748  0.41408997  0.65392023    -0.00100
H893        H  0.52428235  0.42326611  0.60585267     0.13700
H894        H  0.49420765  0.38116698  0.62618289     0.13700
O895        O  0.31189830  0.30683986  0.49293630    -0.87500
C896        C  0.30073502  0.23926439  0.94233817     0.88600
Mg897      Mg  0.34569253  0.30826474  0.52251071     1.58100
O898        O  0.25332051  0.24444651  0.49875287    -0.87200
O899        O  0.26521314  0.30932155  0.49298858    -0.74500
C900        C  0.34755454  0.17939271  0.57850646     0.93600
O901        O  0.35814836  0.26606232  0.96437449    -0.74300
O902        O  0.36425289  0.20055585  0.57686184    -0.81800
Mg903      Mg  0.32252187  0.29641537  0.95004910     1.58000
C904        C  0.23140587  0.18037863  0.54946214     0.93500
O905        O  0.28723857  0.32859926  0.93647576    -0.80100
H906        H  0.22440057  0.26658445  0.52067377    -0.05400
C907        C  0.31943787  0.19173583  0.50790113     0.88500
O908        O  0.31581258  0.29357065  0.55815868    -0.74600
O909        O  0.29314263  0.26208426  0.95313767    -0.87400
O910        O  0.23070834  0.18887734  0.52377336    -0.80200
C911        C  0.22892932  0.21129228  0.93299038     0.93700
C912        C  0.26123944  0.32799496  0.92856114     0.93500
Mg913      Mg  0.28741011  0.21351649  0.55935198     1.58000
O914        O  0.32126467  0.18190531  0.57288514    -0.80100
O915        O  0.25174889  0.24426188  0.54543285    -0.74300
O916        O  0.23585616  0.23746722  0.93316040    -0.80200
O917        O  0.35802368  0.32992403  0.94504264    -0.81900
O918        O  0.37385785  0.26856632  0.57733635    -0.80200
C919        C  0.24228214  0.25221339  0.52137168     0.88000
O920        O  0.31678843  0.24690954  0.55664631    -0.87400
O921        O  0.29750887  0.20344851  0.51662575    -0.87500
O922        O  0.34407734  0.20095153  0.51403608    -0.74500
Mg923      Mg  0.25047887  0.27277425  0.96386674     1.58000
O924        O  0.22890789  0.19717407  0.95586197    -0.81900
H925        H  0.29070162  0.33725114  0.51369660    -0.05600
O926        O  0.35610090  0.26573325  0.51110969    -0.87200
H927        H  0.38564192  0.24425591  0.98937834    -0.05400
H928        H  0.29547887  0.26830660  0.58650293    -0.05600
C929        C  0.36755558  0.25837146  0.98853683     0.87900
C930        C  0.28953955  0.31872167  0.50023400     0.88500
C931        C  0.30913848  0.26934900  0.56808521     0.88600
H932        H  0.31754375  0.17377925  0.49374607    -0.05600
O933        O  0.29307389  0.21528316  0.95230946    -0.74600
Mg934      Mg  0.35917270  0.23573111  0.54453922     1.58000
H935        H  0.31490028  0.23972669  0.92426944    -0.05600
C936        C  0.37926823  0.33068512  0.96181867     0.93500
O937        O  0.37964508  0.31085940  0.55707434    -0.81900
C938        C  0.38111924  0.29454914  0.57863692     0.93600
O939        O  0.24693217  0.30510692  0.92851730    -0.81800
Mg940      Mg  0.26294364  0.20150555  0.48858318     1.58200
O941        O  0.37676894  0.32333850  0.48782308    -0.80200
O942        O  0.25451970  0.17891582  0.56318100    -0.81900
N943        N  0.22814311  0.19635466  0.90614406    -0.02600
C944        C  0.24873963  0.20196601  0.88661126     0.00000
C945        C  0.25566112  0.17813866  0.87128370    -0.22900
C946        C  0.23833905  0.15692877  0.88079754    -0.23100
C947        C  0.22087106  0.16841402  0.90160129    -0.00100
H948        H  0.27080329  0.17674344  0.85405701     0.13700
H949        H  0.23754624  0.13568919  0.87210936     0.13700
N950        N  0.35914732  0.15120188  0.58094236    -0.02600
C951        C  0.35201927  0.13098144  0.56160683     0.00000
C952        C  0.37289087  0.11084024  0.55915400    -0.22900
C953        C  0.39370147  0.11831715  0.57781771    -0.23100
C954        C  0.38487633  0.14291146  0.59171257    -0.00100
H955        H  0.37272080  0.09227210  0.54562946     0.13700
H956        H  0.41307568  0.10637999  0.58060502     0.13700
N957        N  0.40764953  0.33607601  0.95125813    -0.02600
C958        C  0.43065392  0.32157865  0.96089847     0.00000
C959        C  0.45532990  0.33080213  0.94853370    -0.22900
C960        C  0.44770912  0.35144080  0.92990289    -0.23100
C961        C  0.41822550  0.35380650  0.93073310    -0.00100
H962        H  0.47666223  0.32332323  0.95267429     0.13700
H963        H  0.46260574  0.36328852  0.91707381     0.13700
O964        O  0.02480068  0.20392318  0.56095579    -0.87500
C965        C  0.05948781  0.28257777  0.56484662     0.88600
Mg966      Mg  0.00753994  0.19103164  0.52115162     1.58100
O967        O  0.99664124  0.27358923  0.60290951    -0.87200
O968        O  0.01643507  0.21098049  0.60637689    -0.74500
C969        C  0.43118422  0.29897468  0.98211879     0.93600
O970        O  0.05766754  0.24050627  0.51307794    -0.74300
O971        O  0.43524798  0.27358384  0.97402708    -0.81800
Mg972      Mg  0.06616028  0.22109480  0.55741052     1.58000
C973        C  0.43290560  0.32890650  0.59628317     0.93500
O974        O  0.07435683  0.19917479  0.60078417    -0.80100
H975        H  0.47205792  0.25330014  0.63113452    -0.05400
C976        C  0.99424563  0.30891853  0.52452752     0.88500
O977        O  0.46256994  0.20075839  0.53994867    -0.74600
O978        O  0.05014627  0.25983674  0.57422724    -0.87400
O979        O  0.45691766  0.32396719  0.60760819    -0.80200
C980        C  0.04780836  0.32429149  0.62752482     0.93700
C981        C  0.07917948  0.20993865  0.62498753     0.93500
Mg982      Mg  0.44236979  0.28554872  0.55075182     1.58000
O983        O  0.43359566  0.30620805  0.50792755    -0.80100
O984        O  0.45122854  0.26574240  0.59535083    -0.74300
O985        O  0.05652188  0.29892157  0.62482586    -0.80200
O986        O  0.08260837  0.18193080  0.53708415    -0.81900
O987        O  0.45158830  0.20706115  0.98176915    -0.80200
C988        C  0.47347565  0.26374588  0.61074743     0.88000
O989        O  0.45558621  0.24632409  0.53234876    -0.87400
O990        O  0.48416392  0.29961911  0.54699729    -0.87500
O991        O  0.99332280  0.29462678  0.00158119    -0.74500
Mg992      Mg  0.03607704  0.25557113  0.61597987     1.58000
O993        O  0.02181992  0.33066461  0.62505577    -0.81900
H994        H  0.00412290  0.17548865  0.58495823    -0.05600
O995        O  0.01204910  0.23289303  0.00731022    -0.87200
H996        H  0.03580629  0.25214732  0.97772775    -0.05400
H997        H  0.42671860  0.22186487  0.55186473    -0.05600
C998        C  0.03500827  0.24222118  0.99839163     0.87900
C999        C  0.01463735  0.19586532  0.58390845     0.88500
C1000       C  0.44735210  0.22315746  0.54183036     0.88600
H1001       H  0.00430306  0.32954066  0.52445579    -0.05600
O1002       O  0.04518299  0.30548700  0.56652808    -0.74600
Mg1003     Mg  0.47363133  0.25079246  0.99122348     1.58000
H1004       H  0.08020329  0.28297694  0.55494002    -0.05600
C1005       C  0.07685612  0.17843928  0.01110268     0.93500
O1006       O  0.48885707  0.17975154  0.97831508    -0.81900
C1007       C  0.46220122  0.18256437  0.97750652     0.93600
O1008       O  0.07867415  0.23655647  0.62758826    -0.81800
Mg1009     Mg  0.00087251  0.31495621  0.58593079     1.58200
O1010       O  0.05172312  0.18145461  0.00160838    -0.80200
O1011       O  0.43086371  0.32812794  0.56964315    -0.81900
N1012       N  0.40726888  0.32700997  0.61288730    -0.02600
C1013       C  0.38762139  0.30671645  0.60690084     0.00000
C1014       C  0.37121849  0.30086194  0.63032946    -0.22900
C1015       C  0.38037823  0.31858158  0.65145037    -0.23100
C1016       C  0.40215623  0.33517783  0.64035257    -0.00100
H1017       H  0.35350441  0.28627240  0.63149596     0.13700
H1018       H  0.37114740  0.31979425  0.67244322     0.13700
N1019       N  0.07695824  0.19262927  0.65006507    -0.02600
C1020       C  0.05693845  0.19888963  0.66993501     0.00000
C1021       C  0.04828798  0.17473392  0.68387655    -0.22900
C1022       C  0.06404582  0.15284054  0.67305361    -0.23100
C1023       C  0.08224196  0.16409371  0.65266562    -0.00100
H1024       H  0.03274272  0.17329052  0.70075650     0.13700
H1025       H  0.06280026  0.13118246  0.68042453     0.13700
N1026       N  0.44470471  0.15754801  0.98047493    -0.02600
C1027       C  0.45023537  0.13836006  0.00139806     0.00000
C1028       C  0.42609891  0.12347784  0.00839066    -0.22900
C1029       C  0.40495854  0.13306824  0.99092105    -0.23100
C1030       C  0.41667316  0.15357343  0.97324944    -0.00100
H1031       H  0.42443871  0.10634424  0.02357421     0.13700
H1032       H  0.38355811  0.12472817  0.99044639     0.13700
O1033       O  0.30420800  0.06459652  0.49606517    -0.87500
C1034       C  0.23649024  0.11625996  0.50613279     0.88600
Mg1035     Mg  0.30747795  0.03570754  0.96189707     1.58100
O1036       O  0.24039836  0.06017632  0.55395599    -0.87200
O1037       O  0.30540640  0.06447086  0.54275358    -0.74500
C1038       C  0.17916945  0.47951965  0.95745975     0.93600
O1039       O  0.26429073  0.09345865  0.94918660    -0.74300
O1040       O  0.20112231  0.47946065  0.94173117    -0.81800
Mg1041     Mg  0.29370228  0.10737653  0.48560056     1.58000
C1042       C  0.17772351  0.01003114  0.57479443     0.93500
O1043       O  0.32519737  0.12008780  0.52071400    -0.80100
H1044       H  0.26184387  0.03855732  0.58356249    -0.05400
C1045       C  0.19025890  0.05037276  0.98612384     0.88500
O1046       O  0.29252541  0.49959094  0.49118261    -0.74600
O1047       O  0.25876568  0.10451005  0.51393273    -0.87400
O1048       O  0.18505357  0.03605275  0.57491627    -0.80200
C1049       C  0.20777929  0.12672349  0.57736367     0.93700
C1050       C  0.32475866  0.12801691  0.54654424     0.93500
Mg1051     Mg  0.21168768  0.49946630  0.51885297     1.58000
O1052       O  0.18090932  0.48604400  0.48365279    -0.80100
O1053       O  0.24131784  0.51347889  0.55516222    -0.74300
O1054       O  0.23391262  0.12490129  0.57052158    -0.80200
O1055       O  0.32828769  0.11237189  0.95252716    -0.81900
O1056       O  0.26955694  0.48078766  0.93375958    -0.80200
C1057       C  0.24817070  0.03764949  0.56516325     0.88000
O1058       O  0.24587850  0.50193176  0.49012021    -0.87400
O1059       O  0.20131859  0.04224833  0.50861196    -0.87500
O1060       O  0.19997609  0.04331784  0.96188349    -0.74500
Mg1061     Mg  0.26903433  0.09424145  0.55669739     1.58000
O1062       O  0.19182976  0.10494415  0.57695470    -0.81900
H1063       H  0.33361878  0.04321126  0.51801626    -0.05600
O1064       O  0.26493131  0.04672710  0.95070602    -0.87200
H1065       H  0.24353641  0.06830719  0.92105112    -0.05400
H1066       H  0.26667635  0.47159386  0.51132684    -0.05600
C1067       C  0.25731418  0.06925376  0.93936409     0.87900
C1068       C  0.31531828  0.05704157  0.51870181     0.88500
C1069       C  0.26809172  0.49008507  0.49783495     0.88600
H1070       H  0.17225828  0.06458813  0.98713566    -0.05600
O1071       O  0.21205654  0.10697711  0.51321034    -0.74600
Mg1072     Mg  0.23551000  0.01293725  0.94742603     1.58000
H1073       H  0.23783887  0.13452172  0.49230658    -0.05600
C1074       C  0.32921156  0.09710383  0.93030627     0.93500
O1075       O  0.31146751  0.50186209  0.92754157    -0.81900
C1076       C  0.29561264  0.47995222  0.92647959     0.93600
O1077       O  0.30175209  0.12922354  0.56061381    -0.81800
Mg1078     Mg  0.19771705  0.07089891  0.54306233     1.58200
O1079       O  0.32254782  0.07085055  0.93125960    -0.80200
O1080       O  0.17695492  0.49561131  0.55198364    -0.81900
N1081       N  0.33110667  0.11065570  0.90286420    -0.02600
C1082       C  0.31089914  0.10510895  0.88281881     0.00000
C1083       C  0.30811793  0.12727237  0.86421353    -0.22900
C1084       C  0.32727030  0.14734714  0.87243202    -0.23100
C1085       C  0.34198464  0.13687222  0.89586850    -0.00100
H1086       H  0.29409927  0.12840003  0.84605125     0.13700
H1087       H  0.32975629  0.16755780  0.86190521     0.13700
N1088       N  0.19567980  0.15466745  0.58087462    -0.02600
C1089       C  0.20453108  0.17734981  0.56522388     0.00000
C1090       C  0.18652648  0.20000901  0.56836986    -0.22900
C1091       C  0.16567551  0.19145152  0.58654793    -0.23100
C1092       C  0.17097766  0.16325296  0.59373475    -0.00100
H1093       H  0.18899949  0.22099586  0.55935687     0.13700
H1094       H  0.14899751  0.20521265  0.59424159     0.13700
N1095       N  0.15128466  0.47752163  0.94486428    -0.02600
C1096       C  0.12967030  0.49494123  0.95294040     0.00000
C1097       C  0.10808893  0.49481834  0.93336981    -0.22900
C1098       C  0.11620514  0.47658350  0.91237791    -0.23100
C1099       C  0.14302147  0.46622722  0.91935493    -0.00100
H1100       H  0.08797005  0.50585295  0.93485592     0.13700
H1101       H  0.10291709  0.47082704  0.89459380     0.13700
O1102       O  0.31112356  0.25194087  0.81645579    -0.87500
C1103       C  0.29967334  0.31926139  0.86721390     0.88600
Mg1104     Mg  0.34531888  0.24947265  0.78772586     1.58100
O1105       O  0.25278429  0.31459550  0.81051031    -0.87200
O1106       O  0.26447663  0.24959259  0.81539126    -0.74500
C1107       C  0.34921496  0.37672154  0.72921082     0.93600
O1108       O  0.35701392  0.29333733  0.84469694    -0.74300
O1109       O  0.36516648  0.35494426  0.72962027    -0.81800
Mg1110     Mg  0.32148361  0.26295083  0.85915139     1.58000
C1111       C  0.23224053  0.37800837  0.76002659     0.93500
O1112       O  0.28743836  0.23079356  0.87281427    -0.80100
H1113       H  0.22337766  0.29320499  0.78855725    -0.05400
C1114       C  0.32050172  0.36626342  0.80044250     0.88500
O1115       O  0.31569215  0.26347606  0.75141254    -0.74600
O1116       O  0.29205883  0.29673433  0.85586991    -0.87400
O1117       O  0.23179778  0.37008445  0.78585818    -0.80200
C1118       C  0.22777986  0.34709723  0.87627193     0.93700
C1119       C  0.26138207  0.22995567  0.88009297     0.93500
Mg1120     Mg  0.28796459  0.34423363  0.74987810     1.58000
O1121       O  0.32308202  0.37489659  0.73605289    -0.80100
O1122       O  0.25159363  0.31446126  0.76382155    -0.74300
O1123       O  0.23444227  0.32084440  0.87531501    -0.80200
O1124       O  0.35587661  0.22948450  0.86484964    -0.81900
O1125       O  0.37195784  0.28605649  0.73166547    -0.80200
C1126       C  0.24167773  0.30703633  0.78787279     0.88000
O1127       O  0.31660442  0.31017279  0.75262317    -0.87400
O1128       O  0.29822769  0.35451000  0.79264275    -0.87500
O1129       O  0.34493656  0.35698328  0.79336565    -0.74500
Mg1130     Mg  0.24951569  0.28570674  0.84467682     1.58000
O1131       O  0.22870660  0.36236902  0.85405363    -0.81900
H1132       H  0.29033048  0.22159993  0.79524702    -0.05600
O1133       O  0.35568597  0.29225683  0.79796765    -0.87200
H1134       H  0.38473602  0.31460652  0.81944918    -0.05400
H1135       H  0.29516801  0.28855193  0.72301037    -0.05600
C1136       C  0.36673760  0.30038806  0.82045802     0.87900
C1137       C  0.28891207  0.24009085  0.80873947     0.88500
C1138       C  0.30883758  0.28764554  0.74141209     0.88600
H1139       H  0.31915090  0.38452627  0.81426786    -0.05600
O1140       O  0.29269910  0.34346558  0.85739018    -0.74600
Mg1141     Mg  0.35928404  0.32090400  0.76351634     1.58000
H1142       H  0.31344814  0.31831573  0.88552938    -0.05600
C1143       C  0.37783054  0.22953816  0.84912239     0.93500
O1144       O  0.38005434  0.24561358  0.75459408    -0.81900
C1145       C  0.37929042  0.26003554  0.73178475     0.93600
O1146       O  0.24552668  0.25186439  0.87903263    -0.81800
Mg1147     Mg  0.26329001  0.35737692  0.82097491     1.58200
O1148       O  0.37609445  0.23605744  0.82292827    -0.80200
O1149       O  0.25524805  0.37921217  0.74595876    -0.81900
N1150       N  0.36131296  0.40466658  0.72570395    -0.02600
C1151       C  0.35246513  0.42734403  0.74136412     0.00000
C1152       C  0.37047839  0.44999904  0.73823559    -0.22900
C1153       C  0.39132954  0.44144519  0.72005620    -0.23100
C1154       C  0.38601908  0.41325232  0.71285165    -0.00100
H1155       H  0.36801112  0.47098144  0.74726092     0.13700
H1156       H  0.40801334  0.45520589  0.71237392     0.13700
N1157       N  0.22588134  0.36064378  0.90371657    -0.02600
C1158       C  0.24608720  0.35509851  0.92376422     0.00000
C1159       C  0.24885840  0.37725808  0.94237634    -0.22900
C1160       C  0.22970194  0.39732834  0.93416004    -0.23100
C1161       C  0.21499509  0.38685477  0.91071742    -0.00100
H1162       H  0.26287385  0.37838638  0.96054138     0.13700
H1163       H  0.22720982  0.41753605  0.94469167     0.13700
N1164       N  0.40571326  0.22753647  0.86172045    -0.02600
C1165       C  0.42733131  0.24495233  0.85364522     0.00000
C1166       C  0.44890531  0.24483739  0.87322345    -0.22900
C1167       C  0.44078153  0.22661010  0.89421833    -0.23100
C1168       C  0.41396766  0.21624896  0.88723514    -0.00100
H1169       H  0.46902472  0.25587235  0.87174099     0.13700
H1170       H  0.45406523  0.22086134  0.91200789     0.13700
O1171       O  0.24021044  0.99690704  0.74993708    -0.87500
C1172       C  0.18944237  0.00836320  0.81804358     0.88600
Mg1173     Mg  0.26958587  0.46351118  0.74723259     1.58100
O1174       O  0.24509499  0.05683767  0.81365260    -0.87200
O1175       O  0.24119071  0.04356888  0.74843311    -0.74500
C1176       C  0.32807770  0.46129979  0.87358546     0.93600
O1177       O  0.21291744  0.45095155  0.79254359    -0.74300
O1178       O  0.32810136  0.44718522  0.85071137    -0.81800
Mg1179     Mg  0.19782337  0.98572907  0.76203740     1.58000
C1180       C  0.29575397  0.07800121  0.87801943     0.93500
O1181       O  0.18314323  0.01856674  0.72923810    -0.80100
H1182       H  0.26628643  0.08725430  0.79289542    -0.05400
C1183       C  0.25627209  0.48926541  0.86424941     0.88500
O1184       O  0.30525046  0.99425707  0.76114742    -0.74600
O1185       O  0.20089241  0.01573052  0.79547007    -0.87400
O1186       O  0.26975238  0.07859819  0.87011224    -0.80200
C1187       C  0.17772371  0.08067602  0.84476788     0.93700
C1188       C  0.17588394  0.04455024  0.72793709     0.93500
Mg1189     Mg  0.30652174  0.02277948  0.84271226     1.58000
O1190       O  0.32115052  0.98747472  0.87341911    -0.80100
O1191       O  0.29178011  0.05932417  0.81359408    -0.74300
O1192       O  0.18022648  0.07333460  0.81876190    -0.80200
O1193       O  0.19274074  0.45054857  0.72971314    -0.81900
O1194       O  0.32628577  0.43887646  0.78280994    -0.80200
C1195       C  0.26745187  0.06872314  0.80635475     0.88000
O1196       O  0.30367842  0.99444855  0.80782711    -0.87400
O1197       O  0.26386002  0.01208466  0.85344638    -0.87500
O1198       O  0.26393312  0.46528414  0.85427836    -0.74500
Mg1199     Mg  0.21130466  0.05826253  0.78407483     1.58000
O1200       O  0.19896434  0.07990757  0.86154868    -0.81900
H1201       H  0.26153154  0.01830745  0.72009144    -0.05600
O1202       O  0.25948681  0.45344832  0.78996056    -0.87200
H1203       H  0.23944765  0.42378373  0.81284238    -0.05400
H1204       H  0.33260006  0.01658255  0.78590429    -0.05600
C1205       C  0.23755610  0.44173780  0.79868452     0.87900
C1206       C  0.24786599  0.01934798  0.73850491     0.88500
C1207       C  0.31471747  0.00221203  0.78520772     0.88600
H1208       H  0.24211016  0.48972827  0.88232076    -0.05600
O1209       O  0.19885293  0.01604972  0.84220659    -0.74600
Mg1210     Mg  0.29405668  0.45150810  0.81800007     1.58000
H1211       H  0.17135737  0.99424506  0.81720186    -0.05600
C1212       C  0.20943871  0.42938487  0.72807517     0.93500
O1213       O  0.30247511  0.42890825  0.74340355    -0.81900
C1214       C  0.32558879  0.43037326  0.75712277     0.93600
O1215       O  0.17735841  0.06086091  0.74950064    -0.81800
Mg1216     Mg  0.23447395  0.04640805  0.85653784     1.58200
O1217       O  0.23572747  0.43189956  0.73370234    -0.80200
O1218       O  0.31006836  0.05511766  0.87805722    -0.81900
N1219       N  0.19784849  0.40119208  0.72563468    -0.02600
C1220       C  0.20498404  0.38096382  0.74495792     0.00000
C1221       C  0.18413181  0.36079946  0.74738159    -0.22900
C1222       C  0.16332467  0.36827027  0.72871291    -0.23100
C1223       C  0.17213129  0.39288660  0.71484483    -0.00100
H1224       H  0.18431390  0.34221908  0.76088869     0.13700
H1225       H  0.14396633  0.35631165  0.72590585     0.13700
N1226       N  0.14934193  0.08607493  0.85532221    -0.02600
C1227       C  0.12633432  0.07158993  0.84567144     0.00000
C1228       C  0.10165714  0.08083044  0.85802208    -0.22900
C1229       C  0.10928158  0.10146586  0.87665695    -0.23100
C1230       C  0.13876672  0.10381312  0.87584055    -0.00100
H1231       H  0.08032242  0.07336366  0.85387123     0.13700
H1232       H  0.09438797  0.11332377  0.88948048     0.13700
N1233       N  0.32885702  0.44635691  0.90042872    -0.02600
C1234       C  0.30825365  0.45196339  0.91995554     0.00000
C1235       C  0.30132209  0.42813094  0.93527046    -0.22900
C1236       C  0.31864646  0.40692297  0.92575692    -0.23100
C1237       C  0.33612388  0.41841407  0.90496505    -0.00100
H1238       H  0.28617225  0.42673113  0.95249020     0.13700
H1239       H  0.31943541  0.38568078  0.93443824     0.13700
C1240       C  0.15184786  0.14904820  0.94082602     0.04000
C1241       C  0.17916709  0.15973456  0.93507449    -0.12100
C1242       C  0.19342264  0.15401505  0.90959579     0.01500
C1243       C  0.18023447  0.13523938  0.89014530    -0.10700
C1244       C  0.15424162  0.12210299  0.89655335     0.04000
C1245       C  0.14039881  0.12922526  0.92222422    -0.10100
H1246       H  0.18843336  0.17335160  0.95043692     0.09600
H1247       H  0.18928637  0.13209722  0.86933432     0.07100
H1248       H  0.11976856  0.12068471  0.92705641     0.07000
C1249       C  0.40275293  0.87210361  0.41002386     0.04000
C1250       C  0.37676043  0.88524253  0.41643081    -0.12100
C1251       C  0.36357401  0.90401621  0.39697762     0.01500
C1252       C  0.37782974  0.90973193  0.37149898    -0.10700
C1253       C  0.40514945  0.89904778  0.36575068     0.04000
C1254       C  0.41659670  0.87922583  0.38435303    -0.10100
H1255       H  0.36770543  0.88210235  0.43724074     0.09600
H1256       H  0.36856212  0.92334233  0.35613275     0.07100
H1257       H  0.43722522  0.87068415  0.37951840     0.07000
C1258       C  0.15664618  0.90477712  0.18950548     0.04000
C1259       C  0.16519995  0.92965774  0.17539433    -0.12100
C1260       C  0.15044449  0.94051338  0.15155636     0.01500
C1261       C  0.12729798  0.92475048  0.14152309    -0.10700
C1262       C  0.11943249  0.89856283  0.15376775     0.04000
C1263       C  0.13433065  0.88895426  0.17741876    -0.10100
H1264       H  0.18453206  0.93945002  0.18174581     0.09600
H1265       H  0.11637304  0.93177540  0.12299267     0.07100
H1266       H  0.12991479  0.86789219  0.18481670     0.07000
C1267       C  0.41264135  0.86136296  0.15544110     0.04000
C1268       C  0.43857006  0.87458828  0.14880475    -0.12100
C1269       C  0.44859160  0.89844594  0.16398478     0.01500
C1270       C  0.43210083  0.90819735  0.18669575    -0.10700
C1271       C  0.40476380  0.89737395  0.19242502     0.04000
C1272       C  0.39520532  0.87422500  0.17632600    -0.10100
H1273       H  0.45053456  0.86708408  0.13115011     0.09600
H1274       H  0.44000349  0.92500225  0.19959061     0.07100
H1275       H  0.37361018  0.86712209  0.17898408     0.07000
C1276       C  0.10839946  0.64844051  0.14259088     0.04000
C1277       C  0.11841547  0.62457489  0.15776225    -0.12100
C1278       C  0.14434459  0.61134971  0.15112618     0.01500
C1279       C  0.16178265  0.62421467  0.13024503    -0.10700
C1280       C  0.15222816  0.64736845  0.11415196     0.04000
C1281       C  0.12489245  0.65819422  0.11988270    -0.10100
H1282       H  0.10644831  0.61706470  0.17541238     0.09600
H1283       H  0.18337794  0.61711188  0.12758786     0.07100
H1284       H  0.11699524  0.67500484  0.10699426     0.07000
C1285       C  0.43757094  0.64856113  0.15279450     0.04000
C1286       C  0.42971795  0.67475416  0.16503959    -0.12100
C1287       C  0.40657544  0.69052438  0.15501118     0.01500
C1288       C  0.39181282  0.67967529  0.13117235    -0.10700
C1289       C  0.40035943  0.65479092  0.11705913     0.04000
C1290       C  0.42266539  0.63895710  0.12914544    -0.10100
H1291       H  0.44065022  0.68177696  0.18356612     0.09600
H1292       H  0.37249619  0.68946849  0.12482684     0.07100
H1293       H  0.42706792  0.61789136  0.12174822     0.07000
C1294       C  0.39967153  0.69345840  0.40436488     0.04000
C1295       C  0.40970161  0.68742403  0.43183511    -0.12100
C1296       C  0.40206605  0.66259548  0.44620586     0.01500
C1297       C  0.38074795  0.64516276  0.43387748    -0.10700
C1298       C  0.36715477  0.65267539  0.40830284     0.04000
C1299       C  0.37884922  0.67567218  0.39283654    -0.10100
H1300       H  0.42418314  0.70185803  0.44153232     0.09600
H1301       H  0.37579591  0.62520856  0.44360288     0.07100
H1302       H  0.37286386  0.67896592  0.37109117     0.07000
C1303       C  0.15492944  0.91259124  0.36036847     0.04000
C1304       C  0.17624270  0.89515303  0.37269599    -0.12100
C1305       C  0.18982674  0.90265592  0.39827992     0.01500
C1306       C  0.17812762  0.92564628  0.41375175    -0.10700
C1307       C  0.15731507  0.94343925  0.40222185     0.04000
C1308       C  0.14729233  0.93741617  0.37474630    -0.10100
H1309       H  0.18119759  0.87520354  0.36296147     0.09600
H1310       H  0.18410353  0.92893288  0.43550091     0.07100
H1311       H  0.13281862  0.95185517  0.36505224     0.07000
O1312       O  0.49998534  0.56502345  0.06148937    -0.87500
C1313       C  0.06817698  0.61585856  0.05049654     0.88600
Mg1314     Mg  0.49782195  0.53468101  0.09458461     1.58100
O1315       O  0.06330983  0.56040223  0.50197709    -0.87200
O1316       O  0.49818525  0.56521934  0.51479090    -0.74500
C1317       C  0.12626875  0.97818556  0.09700865     0.93600
O1318       O  0.04180822  0.59204414  0.10776684    -0.74300
O1319       O  0.10462481  0.97912876  0.11306495    -0.81800
Mg1320     Mg  0.51154501  0.60751215  0.07288159     1.58000
C1321       C  0.12663704  0.00998902  0.48017632     0.93500
O1322       O  0.47932499  0.62300582  0.03945395    -0.80100
H1323       H  0.04138403  0.53874164  0.47274374    -0.05400
C1324       C  0.11469415  0.54991206  0.06889193     0.88500
O1325       O  0.51254758  0.99961560  0.06401076    -0.74600
O1326       O  0.04548294  0.60467443  0.04305112    -0.87400
O1327       O  0.11877435  0.53587033  0.47987138    -0.80200
C1328       C  0.09625365  0.62700400  0.47828401     0.93700
C1329       C  0.47839998  0.63088485  0.51358508     0.93500
Mg1330     Mg  0.09315967  0.99901819  0.03615700     1.58000
O1331       O  0.12433978  0.98460122  0.07078515    -0.80100
O1332       O  0.06295209  0.01366587  0.50038589    -0.74300
O1333       O  0.07009636  0.62562140  0.48568306    -0.80200
O1334       O  0.47828664  0.61239983  0.10794264    -0.81900
O1335       O  0.03725062  0.97929269  0.12218329    -0.80200
C1336       C  0.05549107  0.53785683  0.49081284     0.88000
O1337       O  0.05927846  0.00103672  0.06524943    -0.87400
O1338       O  0.10344033  0.54180218  0.04651002    -0.87500
O1339       O  0.10527191  0.54271438  0.09318820    -0.74500
Mg1340     Mg  0.03437222  0.59477281  0.50026597     1.58000
O1341       O  0.11170643  0.60486465  0.47794981    -0.81900
H1342       H  0.46988299  0.54440839  0.03977168    -0.05600
O1343       O  0.04055165  0.54538639  0.10533222    -0.87200
H1344       H  0.06310646  0.56609616  0.13469974    -0.05400
H1345       H  0.03793620  0.97172505  0.04317669    -0.05600
C1346       C  0.04871113  0.56758315  0.11689878     0.87900
C1347       C  0.48840230  0.55793423  0.03893521     0.88500
C1348       C  0.03683511  0.98981928  0.05722915     0.88600
H1349       H  0.13256265  0.56428370  0.06774488    -0.05600
O1350       O  0.09230539  0.60649586  0.04246650    -0.74600
Mg1351     Mg  0.07020393  0.01198528  0.10789386     1.58000
H1352       H  0.06747404  0.63371913  0.06486928    -0.05600
C1353       C  0.47677924  0.59552358  0.12898088     0.93500
O1354       O  0.49445236  0.99868862  0.12745609    -0.81900
C1355       C  0.51123517  0.97744166  0.12924118     0.93600
O1356       O  0.50015268  0.62926897  0.49746464    -0.81800
Mg1357     Mg  0.10630255  0.57071144  0.51204077     1.58200
O1358       O  0.48306628  0.56920419  0.12635968    -0.80200
O1359       O  0.12782081  0.99576675  0.50305563    -0.81900
N1360       N  0.10908217  0.65478647  0.47522148    -0.02600
C1361       C  0.10064139  0.67726864  0.49119736     0.00000
C1362       C  0.11892878  0.69977598  0.48881321    -0.22900
C1363       C  0.13977280  0.69138941  0.47072269    -0.23100
C1364       C  0.13406584  0.66348217  0.46285567    -0.00100
H1365       H  0.11725926  0.72017908  0.49923545     0.13700
H1366       H  0.15685117  0.70497833  0.46359129     0.13700
N1367       N  0.47269943  0.60662394  0.15732798    -0.02600
C1368       C  0.48836467  0.59717672  0.17949266     0.00000
C1369       C  0.48401359  0.61307279  0.20345408    -0.22900
C1370       C  0.46497947  0.63354505  0.19620553    -0.23100
C1371       C  0.45857276  0.62996355  0.16758178    -0.00100
H1372       H  0.49379244  0.61016226  0.22402573     0.13700
H1373       H  0.45659540  0.64898485  0.21093636     0.13700
N1374       N  0.15420108  0.97602941  0.10948250    -0.02600
C1375       C  0.17446529  0.99534997  0.10229234     0.00000
C1376       C  0.19394244  0.99872530  0.12363465    -0.22900
C1377       C  0.18604775  0.98069281  0.14486789    -0.23100
C1378       C  0.16180203  0.96622993  0.13592907    -0.00100
H1379       H  0.21240015  0.01243369  0.12350924     0.13700
H1380       H  0.19771034  0.97853169  0.16444463     0.13700
O1381       O  0.99369958  0.81041152  0.30459998    -0.87500
C1382       C  0.44231175  0.79991069  0.23768928     0.88600
Mg1383     Mg  0.02263381  0.84478572  0.30630468     1.58100
O1384       O  0.99773384  0.75104715  0.24132739    -0.87200
O1385       O  0.99406545  0.76367519  0.30619032    -0.74500
C1386       C  0.08020790  0.84554231  0.17758064     0.93600
O1387       O  0.46469109  0.85649920  0.26411280    -0.74300
O1388       O  0.07869070  0.86242316  0.19861496    -0.81800
Mg1389     Mg  0.45070401  0.82071355  0.29453880     1.58000
C1390       C  0.04577294  0.72745407  0.17733765     0.93500
O1391       O  0.43823503  0.78587409  0.32670819    -0.80100
H1392       H  0.01908471  0.72174243  0.26339920    -0.05400
C1393       C  0.00827743  0.81759173  0.18967303     0.88500
O1394       O  0.05882116  0.81523907  0.29177086    -0.74600
O1395       O  0.45356926  0.79180380  0.26007000    -0.87400
O1396       O  0.01975813  0.72930244  0.18439695    -0.80200
C1397       C  0.43074658  0.72818262  0.20957501     0.93700
C1398       C  0.43037379  0.75999218  0.32640633     0.93500
Mg1399     Mg  0.05917898  0.78470081  0.21198140     1.58000
O1400       O  0.07392799  0.81922163  0.18020458    -0.80100
O1401       O  0.04446481  0.74963618  0.24255942    -0.74300
O1402       O  0.43267258  0.73460113  0.23579821    -0.80200
O1403       O  0.44529766  0.85486652  0.32862944    -0.81900
O1404       O  0.07767176  0.87302810  0.26710238    -0.80200
C1405       C  0.02018030  0.73983540  0.24934534     0.88000
O1406       O  0.05701229  0.81504501  0.24507294    -0.87400
O1407       O  0.01644630  0.79539719  0.20123642    -0.87500
O1408       O  0.01517366  0.84205490  0.19880585    -0.74500
Mg1409     Mg  0.46385540  0.74902191  0.27042309     1.58000
O1410       O  0.45239267  0.72912216  0.19352193    -0.81900
H1411       H  0.01563372  0.78875578  0.33382935    -0.05600
O1412       O  0.01151343  0.85468667  0.26352217    -0.87200
H1413       H  0.48951486  0.88372689  0.24170748    -0.05400
H1414       H  0.08712264  0.79443604  0.26678295    -0.05600
C1415       C  0.48881671  0.86586651  0.25608029     0.87900
C1416       C  0.00152382  0.78786783  0.31576263     0.88500
C1417       C  0.06860118  0.80795776  0.26762417     0.88600
H1418       H  0.99387898  0.81610043  0.17187517    -0.05600
O1419       O  0.45173087  0.79271212  0.21339186    -0.74600
Mg1420     Mg  0.04544307  0.85753025  0.23368362     1.58000
H1421       H  0.42444200  0.81428034  0.23883835    -0.05600
C1422       C  0.46074937  0.87700695  0.32829750     0.93500
O1423       O  0.05685283  0.87928450  0.30909715    -0.81900
C1424       C  0.07860221  0.88090405  0.29297222     0.93600
O1425       O  0.42919738  0.74576394  0.30352959    -0.81800
Mg1426     Mg  0.98680195  0.76198888  0.19868400     1.58200
O1427       O  0.98690680  0.87562710  0.32089763    -0.80200
O1428       O  0.06255235  0.74870477  0.17911502    -0.81900
N1429       N  0.40281664  0.72603174  0.19709582    -0.02600
C1430       C  0.38255688  0.74535884  0.20428321     0.00000
C1431       C  0.36309554  0.74875230  0.18292981    -0.22900
C1432       C  0.37099436  0.73072527  0.16169206    -0.23100
C1433       C  0.39522602  0.71624587  0.17064046    -0.00100
H1434       H  0.34464503  0.76247027  0.18304904     0.13700
H1435       H  0.35934650  0.72858010  0.14210972     0.13700
N1436       N  0.08429237  0.85663767  0.14923337    -0.02600
C1437       C  0.06862663  0.84719019  0.12706979     0.00000
C1438       C  0.07297986  0.86308345  0.10310726    -0.22900
C1439       C  0.09201808  0.88355375  0.11035515    -0.23100
C1440       C  0.09842395  0.87997309  0.13897924    -0.00100
H1441       H  0.06320166  0.86017132  0.08253546     0.13700
H1442       H  0.10040600  0.89899054  0.09562371     0.13700
N1443       N  0.44791853  0.90478811  0.33136003    -0.02600
C1444       C  0.45635711  0.92726881  0.31538192     0.00000
C1445       C  0.43806597  0.94977327  0.31776035    -0.22900
C1446       C  0.41722147  0.94138622  0.33584992    -0.23100
C1447       C  0.42293200  0.91348139  0.34372155    -0.00100
H1448       H  0.43973301  0.97017426  0.30733456     0.13700
H1449       H  0.40013981  0.95497323  0.34297693     0.13700
O1450       O  0.10141064  0.49631790  0.27423264    -0.87500
C1451       C  0.02199126  0.49221448  0.30819101     0.88600
Mg1452     Mg  0.11462567  0.53554012  0.25582488     1.59700
O1453       O  0.03219967  0.95391373  0.24562629    -0.87200
O1454       O  0.09443036  0.95075061  0.26663660    -0.74500
C1455       C  0.50918594  0.57427991  0.17904153     0.93600
O1456       O  0.06367144  0.54462297  0.30499262    -0.74300
O1457       O  0.03517354  0.58065693  0.18151591    -0.81800
Mg1458     Mg  0.08336504  0.50079273  0.31535756     1.58000
C1459       C  0.47781976  0.95993441  0.18159214     0.93500
O1460       O  0.10540986  0.95706644  0.32481597    -0.80100
H1461       H  0.05287803  0.92547957  0.22162319    -0.05400
C1462       C  0.49751179  0.53257009  0.24172956     0.88500
O1463       O  0.10576835  0.51572745  0.21122817    -0.74600
O1464       O  0.04495034  0.98288745  0.29927190    -0.87400
O1465       O  0.48264357  0.94917111  0.20579521    -0.80200
C1466       C  0.48014307  0.92843826  0.29547803     0.93700
C1467       C  0.09479877  0.93256843  0.32907583     0.93500
Mg1468     Mg  0.02092175  0.50556091  0.19059756     1.58000
O1469       O  0.50047508  0.54890947  0.18174512    -0.80100
O1470       O  0.04056379  0.96097004  0.20020480    -0.74300
O1471       O  0.00527598  0.93145140  0.30497360    -0.80200
O1472       O  0.12174524  0.52359063  0.33255346    -0.81900
O1473       O  0.10007810  0.57395555  0.19896472    -0.80200
C1474       C  0.04236285  0.94585582  0.22267335     0.88000
O1475       O  0.06035732  0.52357928  0.20366390    -0.87400
O1476       O  0.50685667  0.50982934  0.23235197    -0.87500
O1477       O  0.01181366  0.55548095  0.24004485    -0.74500
Mg1478     Mg  0.04945994  0.94102566  0.28543227     1.58000
O1479       O  0.47439210  0.93192749  0.26949612    -0.81900
H1480       H  0.13028173  0.97185831  0.25472200    -0.05600
O1481       O  0.07283132  0.54961032  0.25957592    -0.87200
H1482       H  0.05268989  0.57953288  0.28211452    -0.05400
H1483       H  0.08494055  0.50328265  0.17544401    -0.05600
C1484       C  0.06274855  0.55891156  0.28204485     0.87900
C1485       C  0.10964712  0.97315059  0.26475431     0.88500
C1486       C  0.08352242  0.51373185  0.19582953     0.88600
H1487       H  0.47679627  0.53296757  0.25163576    -0.05600
O1488       O  0.49933269  0.49050055  0.29350359    -0.74600
Mg1489     Mg  0.05612378  0.56494723  0.22064170     1.58000
H1490       H  0.02119282  0.50213921  0.32885595    -0.05600
C1491       C  0.12580514  0.54898016  0.32445669     0.93500
O1492       O  0.12613359  0.57811623  0.23692923    -0.81900
C1493       C  0.12409036  0.57889546  0.21028932     0.93600
O1494       O  0.06814291  0.92975375  0.32827110    -0.81800
Mg1495     Mg  0.49084136  0.97108920  0.24916985     1.58200
O1496       O  0.12339503  0.55620666  0.29864634    -0.80200
O1497       O  0.47832425  0.98655153  0.17899135    -0.81900
N1498       N  0.11229627  0.90755536  0.32609301    -0.02600
C1499       C  0.10676889  0.88838184  0.30515525     0.00000
C1500       C  0.13090888  0.87350950  0.29815201    -0.22900
C1501       C  0.15204676  0.88309015  0.31563219    -0.23100
C1502       C  0.14032759  0.90358143  0.33331743    -0.00100
H1503       H  0.13257244  0.85638630  0.28295680     0.13700
H1504       H  0.17344784  0.87475235  0.31610506     0.13700
N1505       N  0.14972647  0.57700364  0.19368393    -0.02600
C1506       C  0.16937967  0.55671628  0.19967200     0.00000
C1507       C  0.18577837  0.55085871  0.17624069    -0.22900
C1508       C  0.17661058  0.56857079  0.15511734    -0.23100
C1509       C  0.15483168  0.58516559  0.16621552    -0.00100
H1510       H  0.20349328  0.53627086  0.17507275     0.13700
H1511       H  0.18583710  0.56978046  0.13412237     0.13700
N1512       N  0.48004250  0.94262502  0.15651507    -0.02600
C1513       C  0.50007262  0.94887800  0.13665328     0.00000
C1514       C  0.50872954  0.92471636  0.12272482    -0.22900
C1515       C  0.49296329  0.90282776  0.13354632    -0.23100
C1516       C  0.47475748  0.91408996  0.15392024    -0.00100
H1517       H  0.52428230  0.92326614  0.10585260     0.13700
H1518       H  0.49420762  0.88116685  0.12618281     0.13700
O1519       O  0.31189830  0.80683985  0.99293628    -0.87500
C1520       C  0.30073500  0.73926436  0.44233816     0.88600
Mg1521     Mg  0.34569251  0.80826475  0.02251068     1.58100
O1522       O  0.25332053  0.74444649  0.99875283    -0.87200
O1523       O  0.26521314  0.80932153  0.99298859    -0.74500
C1524       C  0.34755455  0.67939273  0.07850643     0.93600
O1525       O  0.35814837  0.76606230  0.46437450    -0.74300
O1526       O  0.36425288  0.70055588  0.07686186    -0.81800
Mg1527     Mg  0.32252187  0.79641535  0.45004910     1.58000
C1528       C  0.23140586  0.68037863  0.04946210     0.93500
O1529       O  0.28723859  0.82859930  0.43647581    -0.80100
H1530       H  0.22440057  0.76658438  0.02067371    -0.05400
C1531       C  0.31943788  0.69173581  0.00790111     0.88500
O1532       O  0.31581256  0.79357066  0.05815864    -0.74600
O1533       O  0.29314259  0.76208424  0.45313767    -0.87400
O1534       O  0.23070833  0.68887736  0.02377333    -0.80200
C1535       C  0.22892930  0.71129230  0.43299039     0.93700
C1536       C  0.26123947  0.82799500  0.42856118     0.93500
Mg1537     Mg  0.28741009  0.71351648  0.05935196     1.58000
O1538       O  0.32126467  0.68190531  0.07288510    -0.80100
O1539       O  0.25174886  0.74426185  0.04543280    -0.74300
O1540       O  0.23585616  0.73746722  0.43316041    -0.80200
O1541       O  0.35802370  0.82992400  0.44504265    -0.81900
O1542       O  0.37385781  0.76856635  0.07733634    -0.80200
C1543       C  0.24228212  0.75221335  0.02137163     0.88000
O1544       O  0.31678839  0.74690955  0.05664632    -0.87400
O1545       O  0.29750888  0.70344851  0.01662576    -0.87500
O1546       O  0.34407735  0.70095154  0.01403610    -0.74500
Mg1547     Mg  0.25047886  0.77277426  0.46386675     1.58000
O1548       O  0.22890782  0.69717409  0.45586200    -0.81900
H1549       H  0.29070163  0.83725112  0.01369664    -0.05600
O1550       O  0.35610088  0.76573325  0.01110969    -0.87200
H1551       H  0.38564214  0.74425572  0.48937839    -0.05400
H1552       H  0.29547880  0.76830664  0.08650290    -0.05600
C1553       C  0.36755551  0.75837149  0.48853686     0.87900
C1554       C  0.28953955  0.81872164  0.00023400     0.88500
C1555       C  0.30913843  0.76934902  0.06808518     0.88600
H1556       H  0.31754379  0.67377939  0.99374614    -0.05600
O1557       O  0.29307384  0.71528314  0.45230947    -0.74600
Mg1558     Mg  0.35917267  0.73573113  0.04453923     1.58000
H1559       H  0.31490018  0.73972664  0.42426955    -0.05600
C1560       C  0.37926824  0.83068511  0.46181868     0.93500
O1561       O  0.37964505  0.81085943  0.05707433    -0.81900
C1562       C  0.38111921  0.79454916  0.07863691     0.93600
O1563       O  0.24693222  0.80510694  0.42851731    -0.81800
Mg1564     Mg  0.26294367  0.70150554  0.98858316     1.58200
O1565       O  0.37676893  0.82333850  0.98782306    -0.80200
O1566       O  0.25451971  0.67891578  0.06318094    -0.81900
N1567       N  0.22814312  0.69635465  0.40614409    -0.02600
C1568       C  0.24873968  0.70196599  0.38661131     0.00000
C1569       C  0.25566114  0.67813862  0.37128381    -0.22900
C1570       C  0.23833909  0.65692867  0.38079758    -0.23100
C1571       C  0.22087109  0.66841401  0.40160132    -0.00100
H1572       H  0.27080343  0.67674338  0.35405698     0.13700
H1573       H  0.23754627  0.63568929  0.37210949     0.13700
N1574       N  0.35914735  0.65120190  0.08094229    -0.02600
C1575       C  0.35201931  0.63098148  0.06160676     0.00000
C1576       C  0.37289088  0.61084024  0.05915397    -0.22900
C1577       C  0.39370141  0.61831714  0.07781770    -0.23100
C1578       C  0.38487635  0.64291145  0.09171254    -0.00100
H1579       H  0.37272077  0.59227206  0.04562946     0.13700
H1580       H  0.41307574  0.60637982  0.08060509     0.13700
N1581       N  0.40764954  0.83607600  0.45125814    -0.02600
C1582       C  0.43065393  0.82157864  0.46089846     0.00000
C1583       C  0.45532990  0.83080213  0.44853368    -0.22900
C1584       C  0.44770911  0.85144081  0.42990292    -0.23100
C1585       C  0.41822549  0.85380652  0.43073313    -0.00100
H1586       H  0.47666228  0.82332319  0.45267425     0.13700
H1587       H  0.46260576  0.86328858  0.41707379     0.13700
O1588       O  0.02480066  0.70392316  0.06095581    -0.87500
C1589       C  0.05948784  0.78257777  0.06484660     0.88600
Mg1590     Mg  0.00753994  0.69103163  0.02115165     1.58100
O1591       O  0.99664124  0.77358923  0.10290952    -0.87200
O1592       O  0.01643512  0.71098044  0.10637692    -0.74500
C1593       C  0.43118425  0.79897467  0.48211880     0.93600
O1594       O  0.05766752  0.74050625  0.01307795    -0.74300
O1595       O  0.43524796  0.77358382  0.47402711    -0.81800
Mg1596     Mg  0.06616026  0.72109478  0.05741053     1.58000
C1597       C  0.43290561  0.82890650  0.09628316     0.93500
O1598       O  0.07435686  0.69917480  0.10078417    -0.80100
H1599       H  0.47205793  0.75330025  0.13113433    -0.05400
C1600       C  0.99424562  0.80891848  0.02452752     0.88500
O1601       O  0.46256995  0.70075836  0.03994870    -0.74600
O1602       O  0.05014624  0.75983673  0.07422725    -0.87400
O1603       O  0.45691767  0.82396720  0.10760818    -0.80200
C1604       C  0.04780832  0.82429150  0.12752484     0.93700
C1605       C  0.07917949  0.70993867  0.12498753     0.93500
Mg1606     Mg  0.44236981  0.78554871  0.05075183     1.58000
O1607       O  0.43359566  0.80620803  0.00792757    -0.80100
O1608       O  0.45122856  0.76574241  0.09535082    -0.74300
O1609       O  0.05652183  0.79892158  0.12482587    -0.80200
O1610       O  0.08260837  0.68193079  0.03708417    -0.81900
O1611       O  0.45158830  0.70706113  0.48176916    -0.80200
C1612       C  0.47347566  0.76374587  0.11074747     0.88000
O1613       O  0.45558625  0.74632407  0.03234877    -0.87400
O1614       O  0.48416396  0.79961909  0.04699730    -0.87500
O1615       O  0.99332277  0.79462678  0.50158121    -0.74500
Mg1616     Mg  0.03607703  0.75557113  0.11597988     1.58000
O1617       O  0.02181988  0.83066462  0.12505576    -0.81900
H1618       H  0.00412291  0.67548849  0.08495829    -0.05600
O1619       O  0.01204909  0.73289301  0.50731022    -0.87200
H1620       H  0.03580625  0.75214730  0.47772776    -0.05400
H1621       H  0.42671877  0.72186487  0.05186460    -0.05600
C1622       C  0.03500825  0.74222117  0.49839160     0.87900
C1623       C  0.01463739  0.69586530  0.08390848     0.88500
C1624       C  0.44735206  0.72315744  0.04183038     0.88600
H1625       H  0.00430309  0.82954075  0.02445582    -0.05600
O1626       O  0.04518297  0.80548701  0.06652810    -0.74600
Mg1627     Mg  0.47363134  0.75079245  0.49122348     1.58000
H1628       H  0.08020306  0.78297693  0.05494013    -0.05600
C1629       C  0.07685609  0.67843930  0.51110264     0.93500
O1630       O  0.48885709  0.67975155  0.47831505    -0.81900
C1631       C  0.46220124  0.68256436  0.47750650     0.93600
O1632       O  0.07867414  0.73655649  0.12758826    -0.81800
Mg1633     Mg  0.00087249  0.81495620  0.08593078     1.58200
O1634       O  0.05172308  0.68145460  0.50160837    -0.80200
O1635       O  0.43086371  0.82812794  0.06964315    -0.81900
N1636       N  0.40726888  0.82700997  0.11288728    -0.02600
C1637       C  0.38762139  0.80671646  0.10690084     0.00000
C1638       C  0.37121847  0.80086189  0.13032947    -0.22900
C1639       C  0.38037826  0.81858155  0.15145037    -0.23100
C1640       C  0.40215623  0.83517783  0.14035257    -0.00100
H1641       H  0.35350452  0.78627247  0.13149597     0.13700
H1642       H  0.37114745  0.81979418  0.17244325     0.13700
N1643       N  0.07695825  0.69262929  0.15006508    -0.02600
C1644       C  0.05693844  0.69888965  0.16993500     0.00000
C1645       C  0.04828795  0.67473394  0.18387657    -0.22900
C1646       C  0.06404580  0.65284054  0.17305359    -0.23100
C1647       C  0.08224195  0.66409374  0.15266559    -0.00100
H1648       H  0.03274276  0.67329055  0.20075643     0.13700
H1649       H  0.06280021  0.63118253  0.18042444     0.13700
N1650       N  0.44470473  0.65754798  0.48047490    -0.02600
C1651       C  0.45023540  0.63836004  0.50139802     0.00000
C1652       C  0.42609892  0.62347779  0.50839068    -0.22900
C1653       C  0.40495849  0.63306821  0.49092105    -0.23100
C1654       C  0.41667318  0.65357341  0.47324942    -0.00100
H1655       H  0.42443872  0.60634431  0.52357414     0.13700
H1656       H  0.38355827  0.62472824  0.49044644     0.13700
O1657       O  0.30420802  0.56459652  0.99606519    -0.87500
C1658       C  0.23649027  0.61625994  0.00613277     0.88600
Mg1659     Mg  0.30747798  0.53570754  0.46189706     1.58100
O1660       O  0.24039833  0.56017631  0.05395597    -0.87200
O1661       O  0.30540645  0.56447088  0.04275359    -0.74500
C1662       C  0.17916947  0.97951966  0.45745977     0.93600
O1663       O  0.26429076  0.59345870  0.44918657    -0.74300
O1664       O  0.20112233  0.97946066  0.44173118    -0.81800
Mg1665     Mg  0.29370230  0.60737654  0.98560056     1.58000
C1666       C  0.17772349  0.51003114  0.07479442     0.93500
O1667       O  0.32519739  0.62008787  0.02071396    -0.80100
H1668       H  0.26184369  0.53855730  0.08356218    -0.05400
C1669       C  0.19025888  0.55037281  0.48612384     0.88500
O1670       O  0.29252541  0.99959095  0.99118263    -0.74600
O1671       O  0.25876571  0.60451007  0.01393274    -0.87400
O1672       O  0.18505356  0.53605274  0.07491626    -0.80200
C1673       C  0.20777929  0.62672351  0.07736365     0.93700
C1674       C  0.32475869  0.62801693  0.04654421     0.93500
Mg1675     Mg  0.21168769  0.99946629  0.01885297     1.58000
O1676       O  0.18090931  0.98604400  0.98365278    -0.80100
O1677       O  0.24131783  0.01347889  0.05516221    -0.74300
O1678       O  0.23391262  0.62490133  0.07052156    -0.80200
O1679       O  0.32828773  0.61237189  0.45252715    -0.81900
O1680       O  0.26955693  0.98078769  0.43375956    -0.80200
C1681       C  0.24817073  0.53764947  0.06516330     0.88000
O1682       O  0.24587850  0.00193174  0.99012021    -0.87400
O1683       O  0.20131859  0.54224830  0.00861196    -0.87500
O1684       O  0.19997614  0.54331788  0.46188350    -0.74500
Mg1685     Mg  0.26903433  0.59424145  0.05669739     1.58000
O1686       O  0.19182976  0.60494417  0.07695465    -0.81900
H1687       H  0.33361906  0.54321109  0.01801625    -0.05600
O1688       O  0.26493135  0.54672715  0.45070601    -0.87200
H1689       H  0.24353643  0.56830722  0.42105097    -0.05400
H1690       H  0.26667637  0.97159386  0.01132684    -0.05600
C1691       C  0.25731425  0.56925380  0.43936408     0.87900
C1692       C  0.31531825  0.55704163  0.01870182     0.88500
C1693       C  0.26809173  0.99008506  0.99783497     0.88600
H1694       H  0.17225847  0.56458805  0.48713564    -0.05600
O1695       O  0.21205657  0.60697707  0.01321030    -0.74600
Mg1696     Mg  0.23551002  0.51293730  0.44742602     1.58000
H1697       H  0.23783888  0.63452171  0.99230654    -0.05600
C1698       C  0.32921159  0.59710381  0.43030626     0.93500
O1699       O  0.31146748  0.00186213  0.42754152    -0.81900
C1700       C  0.29561261  0.97995225  0.42647956     0.93600
O1701       O  0.30175213  0.62922351  0.06061381    -0.81800
Mg1702     Mg  0.19771705  0.57089890  0.04306231     1.58200
O1703       O  0.32254784  0.57085054  0.43125959    -0.80200
O1704       O  0.17695494  0.99561130  0.05198363    -0.81900
N1705       N  0.33110668  0.61065569  0.40286419    -0.02600
C1706       C  0.31089914  0.60510896  0.38281881     0.00000
C1707       C  0.30811790  0.62727240  0.36421356    -0.22900
C1708       C  0.32727025  0.64734717  0.37243207    -0.23100
C1709       C  0.34198461  0.63687223  0.39586853    -0.00100
H1710       H  0.29409924  0.62840007  0.34605127     0.13700
H1711       H  0.32975625  0.66755784  0.36190526     0.13700
N1712       N  0.19567979  0.65466745  0.08087459    -0.02600
C1713       C  0.20453107  0.67734982  0.06522386     0.00000
C1714       C  0.18652647  0.70000906  0.06836983    -0.22900
C1715       C  0.16567554  0.69145149  0.08654791    -0.23100
C1716       C  0.17097764  0.66325297  0.09373473    -0.00100
H1717       H  0.18899946  0.72099581  0.05935691     0.13700
H1718       H  0.14899743  0.70521271  0.09424163     0.13700
N1719       N  0.15128468  0.97752164  0.44486430    -0.02600
C1720       C  0.12967032  0.99494124  0.45294044     0.00000
C1721       C  0.10808902  0.99481831  0.43336985    -0.22900
C1722       C  0.11620513  0.97658349  0.41237795    -0.23100
C1723       C  0.14302146  0.96622723  0.41935496    -0.00100
H1724       H  0.08796990  0.00585308  0.43485599     0.13700
H1725       H  0.10291709  0.97082700  0.39459388     0.13700
O1726       O  0.31112353  0.75194086  0.31645574    -0.87500
C1727       C  0.29967339  0.81926139  0.36721392     0.88600
Mg1728     Mg  0.34531884  0.74947263  0.28772581     1.58100
O1729       O  0.25278432  0.81459556  0.31051034    -0.87200
O1730       O  0.26447660  0.74959263  0.31539124    -0.74500
C1731       C  0.34921496  0.87672152  0.22921082     0.93600
O1732       O  0.35701391  0.79333730  0.34469689    -0.74300
O1733       O  0.36516649  0.85494425  0.22962026    -0.81800
Mg1734     Mg  0.32148360  0.76295082  0.35915135     1.58000
C1735       C  0.23224053  0.87800841  0.26002660     0.93500
O1736       O  0.28743836  0.73079357  0.37281427    -0.80100
H1737       H  0.22337756  0.79320501  0.28855733    -0.05400
C1738       C  0.32050177  0.86626346  0.30044250     0.88500
O1739       O  0.31569212  0.76347608  0.25141252    -0.74600
O1740       O  0.29205884  0.79673434  0.35586990    -0.87400
O1741       O  0.23179781  0.87008449  0.28585820    -0.80200
C1742       C  0.22777989  0.84709725  0.37627196     0.93700
C1743       C  0.26138207  0.72995567  0.38009299     0.93500
Mg1744     Mg  0.28796458  0.84423366  0.24987811     1.58000
O1745       O  0.32308202  0.87489656  0.23605288    -0.80100
O1746       O  0.25159361  0.81446132  0.26382159    -0.74300
O1747       O  0.23444231  0.82084442  0.37531505    -0.80200
O1748       O  0.35587660  0.72948447  0.36484959    -0.81900
O1749       O  0.37195781  0.78605646  0.23166542    -0.80200
C1750       C  0.24167775  0.80703642  0.28787284     0.88000
O1751       O  0.31660439  0.81017281  0.25262319    -0.87400
O1752       O  0.29822771  0.85451006  0.29264275    -0.87500
O1753       O  0.34493659  0.85698328  0.29336563    -0.74500
Mg1754     Mg  0.24951569  0.78570677  0.34467685     1.58000
O1755       O  0.22870661  0.86236901  0.35405364    -0.81900
H1756       H  0.29033040  0.72159991  0.29524695    -0.05600
O1757       O  0.35568596  0.79225681  0.29796760    -0.87200
H1758       H  0.38473610  0.81460657  0.31944913    -0.05400
H1759       H  0.29516806  0.78855197  0.22301046    -0.05600
C1760       C  0.36673756  0.80038802  0.32045797     0.87900
C1761       C  0.28891202  0.74009088  0.30873944     0.88500
C1762       C  0.30883753  0.78764557  0.24141206     0.88600
H1763       H  0.31915097  0.88452626  0.31426783    -0.05600
O1764       O  0.29269913  0.84346559  0.35739018    -0.74600
Mg1765     Mg  0.35928403  0.82090399  0.26351631     1.58000
H1766       H  0.31344806  0.81831573  0.38552924    -0.05600
C1767       C  0.37783052  0.72953811  0.34912234     0.93500
O1768       O  0.38005429  0.74561354  0.25459403    -0.81900
C1769       C  0.37929039  0.76003551  0.23178470     0.93600
O1770       O  0.24552666  0.75186438  0.37903263    -0.81800
Mg1771     Mg  0.26329004  0.85737696  0.32097492     1.58200
O1772       O  0.37609443  0.73605739  0.32292822    -0.80200
O1773       O  0.25524805  0.87921223  0.24595877    -0.81900
N1774       N  0.36131297  0.90466657  0.22570394    -0.02600
C1775       C  0.35246513  0.92734404  0.24136409     0.00000
C1776       C  0.37047839  0.94999902  0.23823554    -0.22900
C1777       C  0.39132960  0.94144518  0.22005621    -0.23100
C1778       C  0.38601909  0.91325230  0.21285167    -0.00100
H1779       H  0.36801111  0.97098151  0.24726088     0.13700
H1780       H  0.40801336  0.95520582  0.21237398     0.13700
N1781       N  0.22588137  0.86064382  0.40371659    -0.02600
C1782       C  0.24608720  0.85509855  0.42376427     0.00000
C1783       C  0.24885842  0.87725812  0.44237643    -0.22900
C1784       C  0.22970195  0.89732840  0.43416006    -0.23100
C1785       C  0.21499511  0.88685481  0.41071742    -0.00100
H1786       H  0.26287378  0.87838644  0.46054135     0.13700
H1787       H  0.22720988  0.91753607  0.44469162     0.13700
N1788       N  0.40571325  0.72753643  0.36172040    -0.02600
C1789       C  0.42733129  0.74495229  0.35364517     0.00000
C1790       C  0.44890530  0.74483737  0.37322338    -0.22900
C1791       C  0.44078153  0.72661008  0.39421823    -0.23100
C1792       C  0.41396767  0.71624892  0.38723508    -0.00100
H1793       H  0.46902469  0.75587235  0.37174090     0.13700
H1794       H  0.45406528  0.72086130  0.41200786     0.13700
O1795       O  0.24021043  0.49690702  0.24993708    -0.87500
C1796       C  0.18944238  0.50836317  0.31804361     0.88600
Mg1797     Mg  0.26958585  0.96351118  0.24723263     1.58100
O1798       O  0.24509499  0.55683762  0.31365261    -0.87200
O1799       O  0.24119071  0.54356886  0.24843313    -0.74500
C1800       C  0.32807773  0.96129985  0.37358545     0.93600
O1801       O  0.21291743  0.95095157  0.29254362    -0.74300
O1802       O  0.32810148  0.94718531  0.35071133    -0.81800
Mg1803     Mg  0.19782336  0.48572905  0.26203739     1.58000
C1804       C  0.29575398  0.57800122  0.37801943     0.93500
O1805       O  0.18314324  0.51856675  0.22923810    -0.80100
H1806       H  0.26628644  0.58725423  0.29289541    -0.05400
C1807       C  0.25627217  0.98926544  0.36424945     0.88500
O1808       O  0.30525046  0.49425706  0.26114743    -0.74600
O1809       O  0.20089240  0.51573049  0.29547008    -0.87400
O1810       O  0.26975239  0.57859820  0.37011226    -0.80200
C1811       C  0.17772370  0.58067599  0.34476787     0.93700
C1812       C  0.17588395  0.54455025  0.22793710     0.93500
Mg1813     Mg  0.30652178  0.52277945  0.34271227     1.58000
O1814       O  0.32115055  0.48747468  0.37341912    -0.80100
O1815       O  0.29178012  0.55932411  0.31359409    -0.74300
O1816       O  0.18022647  0.57333455  0.31876190    -0.80200
O1817       O  0.19274070  0.95054860  0.22971312    -0.81900
O1818       O  0.32628581  0.93887650  0.28280992    -0.80200
C1819       C  0.26745188  0.56872308  0.30635475     0.88000
O1820       O  0.30367845  0.49444852  0.30782713    -0.87400
O1821       O  0.26386007  0.51208463  0.35344640    -0.87500
O1822       O  0.26393323  0.96528415  0.35427843    -0.74500
Mg1823     Mg  0.21130467  0.55826249  0.28407484     1.58000
O1824       O  0.19896434  0.57990758  0.36154868    -0.81900
H1825       H  0.26153147  0.51830744  0.22009154    -0.05600
O1826       O  0.25948681  0.95344835  0.28996063    -0.87200
H1827       H  0.23944761  0.92378394  0.31284232    -0.05400
H1828       H  0.33260004  0.51658245  0.28590429    -0.05600
C1829       C  0.23755609  0.94173780  0.29868463     0.87900
C1830       C  0.24786600  0.51934797  0.23850490     0.88500
C1831       C  0.31471751  0.50221201  0.28520773     0.88600
H1832       H  0.24211028  0.98972833  0.38232072    -0.05600
O1833       O  0.19885294  0.51604970  0.34220661    -0.74600
Mg1834     Mg  0.29405674  0.95150810  0.31800010     1.58000
H1835       H  0.17135741  0.49424503  0.31720190    -0.05600
C1836       C  0.20943867  0.92938490  0.22807520     0.93500
O1837       O  0.30247510  0.92890823  0.24340357    -0.81900
C1838       C  0.32558880  0.93037327  0.25712275     0.93600
O1839       O  0.17735842  0.56086090  0.24950066    -0.81800
Mg1840     Mg  0.23447397  0.54640804  0.35653786     1.58200
O1841       O  0.23572742  0.93189958  0.23370242    -0.80200
O1842       O  0.31006839  0.55511768  0.37805722    -0.81900
N1843       N  0.19784844  0.90119210  0.22563472    -0.02600
C1844       C  0.20498403  0.88096383  0.24495793     0.00000
C1845       C  0.18413180  0.86079946  0.24738158    -0.22900
C1846       C  0.16332465  0.86827027  0.22871293    -0.23100
C1847       C  0.17213126  0.89288661  0.21484485    -0.00100
H1848       H  0.18431391  0.84221904  0.26088869     0.13700
H1849       H  0.14396626  0.85631164  0.22590586     0.13700
N1850       N  0.14934193  0.58607492  0.35532219    -0.02600
C1851       C  0.12633431  0.57158995  0.34567139     0.00000
C1852       C  0.10165713  0.58083045  0.35802203    -0.22900
C1853       C  0.10928158  0.60146588  0.37665690    -0.23100
C1854       C  0.13876673  0.60381312  0.37584051    -0.00100
H1855       H  0.08032240  0.57336368  0.35387118     0.13700
H1856       H  0.09438800  0.61332379  0.38948041     0.13700
N1857       N  0.32885699  0.94635692  0.40042869    -0.02600
C1858       C  0.30825363  0.95196343  0.41995551     0.00000
C1859       C  0.30132205  0.92813100  0.43527053    -0.22900
C1860       C  0.31864646  0.90692299  0.42575698    -0.23100
C1861       C  0.33612386  0.91841410  0.40496504    -0.00100
H1862       H  0.28617238  0.92673122  0.45249014     0.13700
H1863       H  0.31943543  0.88568095  0.43443832     0.13700
C1864       C  0.15184787  0.64904821  0.44082598     0.04000
C1865       C  0.17916708  0.65973453  0.43507445    -0.12100
C1866       C  0.19342267  0.65401505  0.40959581     0.01500
C1867       C  0.18023450  0.63523937  0.39014529    -0.10700
C1868       C  0.15424166  0.62210298  0.39655332     0.04000
C1869       C  0.14039884  0.62922523  0.42222417    -0.10100
H1870       H  0.18843354  0.67335183  0.45043717     0.09600
H1871       H  0.18928641  0.63209723  0.36933430     0.07100
H1872       H  0.11976856  0.62068467  0.42705637     0.07000
C1873       C  0.40275291  0.87210359  0.91002381     0.04000
C1874       C  0.37676045  0.88524254  0.91643079    -0.12100
C1875       C  0.36357403  0.90401625  0.89697761     0.01500
C1876       C  0.37782977  0.90973195  0.87149900    -0.10700
C1877       C  0.40514944  0.89904778  0.86575063     0.04000
C1878       C  0.41659668  0.87922578  0.88435298    -0.10100
H1879       H  0.36770541  0.88210235  0.93724074     0.09600
H1880       H  0.36856200  0.92334256  0.85613259     0.07100
H1881       H  0.43722516  0.87068406  0.87951832     0.07000
C1882       C  0.15664617  0.90477715  0.68950548     0.04000
C1883       C  0.16519995  0.92965777  0.67539435    -0.12100
C1884       C  0.15044452  0.94051340  0.65155635     0.01500
C1885       C  0.12729803  0.92475048  0.64152302    -0.10700
C1886       C  0.11943249  0.89856285  0.65376773     0.04000
C1887       C  0.13433061  0.88895429  0.67741877    -0.10100
H1888       H  0.18453205  0.93945008  0.68174587     0.09600
H1889       H  0.11637320  0.93177534  0.62299262     0.07100
H1890       H  0.12991474  0.86789228  0.68481672     0.07000
C1891       C  0.41264134  0.86136295  0.65544112     0.04000
C1892       C  0.43857007  0.87458827  0.64880477    -0.12100
C1893       C  0.44859159  0.89844594  0.66398476     0.01500
C1894       C  0.43210081  0.90819739  0.68669571    -0.10700
C1895       C  0.40476378  0.89737396  0.69242501     0.04000
C1896       C  0.39520536  0.87422502  0.67632600    -0.10100
H1897       H  0.45053457  0.86708403  0.63115016     0.09600
H1898       H  0.44000343  0.92500230  0.69959050     0.07100
H1899       H  0.37361003  0.86712205  0.67898410     0.07000
C1900       C  0.10839945  0.64844051  0.64259087     0.04000
C1901       C  0.11841540  0.62457481  0.65776229    -0.12100
C1902       C  0.14434458  0.61134969  0.65112616     0.01500
C1903       C  0.16178268  0.62421466  0.63024506    -0.10700
C1904       C  0.15222814  0.64736847  0.61415198     0.04000
C1905       C  0.12489245  0.65819421  0.61988274    -0.10100
H1906       H  0.10644848  0.61706479  0.67541195     0.09600
H1907       H  0.18337781  0.61711198  0.62758792     0.07100
H1908       H  0.11699520  0.67500496  0.60699422     0.07000
C1909       C  0.43757094  0.64856115  0.65279452     0.04000
C1910       C  0.42971794  0.67475416  0.66503957    -0.12100
C1911       C  0.40657546  0.69052440  0.65501122     0.01500
C1912       C  0.39181284  0.67967530  0.63117238    -0.10700
C1913       C  0.40035943  0.65479094  0.61705916     0.04000
C1914       C  0.42266537  0.63895710  0.62914546    -0.10100
H1915       H  0.44065034  0.68177704  0.68356630     0.09600
H1916       H  0.37249618  0.68946850  0.62482688     0.07100
H1917       H  0.42706789  0.61789141  0.62174829     0.07000
C1918       C  0.39967153  0.69345841  0.90436493     0.04000
C1919       C  0.40970160  0.68742404  0.93183515    -0.12100
C1920       C  0.40206605  0.66259547  0.94620588     0.01500
C1921       C  0.38074796  0.64516278  0.93387746    -0.10700
C1922       C  0.36715479  0.65267538  0.90830284     0.04000
C1923       C  0.37884922  0.67567220  0.89283655    -0.10100
H1924       H  0.42418307  0.70185801  0.94153238     0.09600
H1925       H  0.37579588  0.62520842  0.94360292     0.07100
H1926       H  0.37286389  0.67896592  0.87109124     0.07000
C1927       C  0.15492943  0.91259124  0.86036846     0.04000
C1928       C  0.17624271  0.89515302  0.87269600    -0.12100
C1929       C  0.18982675  0.90265591  0.89827992     0.01500
C1930       C  0.17812761  0.92564624  0.91375177    -0.10700
C1931       C  0.15731508  0.94343924  0.90222184     0.04000
C1932       C  0.14729239  0.93741617  0.87474629    -0.10100
H1933       H  0.18119757  0.87520350  0.86296149     0.09600
H1934       H  0.18410346  0.92893280  0.93550094     0.07100
H1935       H  0.13281857  0.95185530  0.86505214     0.07000
O1936       O  0.49998538  0.56502341  0.56148936    -0.87500
C1937       C  0.06817694  0.61585848  0.55049649     0.88600
Mg1938     Mg  0.49782197  0.53468102  0.59458461     1.58100
O1939       O  0.06330981  0.56040222  0.00197713    -0.87200
O1940       O  0.49818523  0.56521936  0.01479091    -0.74500
C1941       C  0.12626879  0.97818559  0.59700867     0.93600
O1942       O  0.04180818  0.59204414  0.60776683    -0.74300
O1943       O  0.10462486  0.97912878  0.61306498    -0.81800
Mg1944     Mg  0.51154502  0.60751213  0.57288156     1.58000
C1945       C  0.12663699  0.00998903  0.98017628     0.93500
O1946       O  0.47932499  0.62300578  0.53945388    -0.80100
H1947       H  0.04138402  0.53874167  0.97274369    -0.05400
C1948       C  0.11469414  0.54991208  0.56889193     0.88500
O1949       O  0.51254759  0.99961561  0.56401075    -0.74600
O1950       O  0.04548292  0.60467442  0.54305110    -0.87400
O1951       O  0.11877426  0.53587033  0.97987135    -0.80200
C1952       C  0.09625367  0.62700398  0.97828406     0.93700
C1953       C  0.47839997  0.63088488  0.01358513     0.93500
Mg1954     Mg  0.09315971  0.99901819  0.53615702     1.58000
O1955       O  0.12433981  0.98460125  0.57078517    -0.80100
O1956       O  0.06295206  0.01366586  0.00038588    -0.74300
O1957       O  0.07009638  0.62562139  0.98568312    -0.80200
O1958       O  0.47828668  0.61239985  0.60794263    -0.81900
O1959       O  0.03725063  0.97929270  0.62218330    -0.80200
C1960       C  0.05549107  0.53785684  0.99081284     0.88000
O1961       O  0.05927849  0.00103673  0.56524946    -0.87400
O1962       O  0.10344034  0.54180216  0.54651002    -0.87500
O1963       O  0.10527188  0.54271442  0.59318821    -0.74500
Mg1964     Mg  0.03437221  0.59477283  0.00026600     1.58000
O1965       O  0.11170642  0.60486462  0.97794981    -0.81900
H1966       H  0.46988288  0.54440827  0.53977168    -0.05600
O1967       O  0.04055162  0.54538639  0.60533224    -0.87200
H1968       H  0.06310640  0.56609617  0.63469979    -0.05400
H1969       H  0.03793626  0.97172504  0.54317672    -0.05600
C1970       C  0.04871107  0.56758316  0.61689880     0.87900
C1971       C  0.48840235  0.55793423  0.53893521     0.88500
C1972       C  0.03683515  0.98981928  0.55722916     0.88600
H1973       H  0.13256260  0.56428372  0.56774488    -0.05600
O1974       O  0.09230535  0.60649584  0.54246650    -0.74600
Mg1975     Mg  0.07020396  0.01198529  0.60789389     1.58000
H1976       H  0.06747401  0.63371935  0.56486949    -0.05600
C1977       C  0.47677926  0.59552360  0.62898088     0.93500
O1978       O  0.49445240  0.99868861  0.62745605    -0.81900
C1979       C  0.51123520  0.97744164  0.62924117     0.93600
O1980       O  0.50015265  0.62926898  0.99746469    -0.81800
Mg1981     Mg  0.10630254  0.57071144  0.01204077     1.58200
O1982       O  0.48306630  0.56920421  0.62635968    -0.80200
O1983       O  0.12782074  0.99576676  0.00305559    -0.81900
N1984       N  0.10908221  0.65478644  0.97522156    -0.02600
C1985       C  0.10064143  0.67726861  0.99119744     0.00000
C1986       C  0.11892877  0.69977599  0.98881327    -0.22900
C1987       C  0.13977273  0.69138939  0.97072274    -0.23100
C1988       C  0.13406585  0.66348217  0.96285572    -0.00100
H1989       H  0.11725920  0.72017905  0.99923547     0.13700
H1990       H  0.15685121  0.70497845  0.96359124     0.13700
N1991       N  0.47269945  0.60662396  0.65732798    -0.02600
C1992       C  0.48836465  0.59717671  0.67949268     0.00000
C1993       C  0.48401358  0.61307277  0.70345417    -0.22900
C1994       C  0.46497944  0.63354507  0.69620556    -0.23100
C1995       C  0.45857276  0.62996356  0.66758178    -0.00100
H1996       H  0.49379230  0.61016226  0.72402562     0.13700
H1997       H  0.45659538  0.64898479  0.71093635     0.13700
N1998       N  0.15420113  0.97602944  0.60948251    -0.02600
C1999       C  0.17446535  0.99534998  0.60229235     0.00000
C2000       C  0.19394251  0.99872529  0.62363465    -0.22900
C2001       C  0.18604780  0.98069279  0.64486784    -0.23100
C2002       C  0.16180209  0.96622993  0.63592907    -0.00100
H2003       H  0.21240025  0.01243366  0.62350923     0.13700
H2004       H  0.19771049  0.97853162  0.66444471     0.13700
O2005       O  0.99369955  0.81041154  0.80459999    -0.87500
C2006       C  0.44231171  0.79991072  0.73768927     0.88600
Mg2007     Mg  0.02263380  0.84478574  0.80630467     1.58100
O2008       O  0.99773386  0.75104717  0.74132738    -0.87200
O2009       O  0.99406544  0.76367521  0.80619032    -0.74500
C2010       C  0.08020792  0.84554229  0.67758061     0.93600
O2011       O  0.46469114  0.85649920  0.76411277    -0.74300
O2012       O  0.07869064  0.86242316  0.69861491    -0.81800
Mg2013     Mg  0.45070404  0.82071355  0.79453878     1.58000
C2014       C  0.04577295  0.72745407  0.67733763     0.93500
O2015       O  0.43823508  0.78587407  0.82670819    -0.80100
H2016       H  0.01908474  0.72174244  0.76339915    -0.05400
C2017       C  0.00827742  0.81759173  0.68967302     0.88500
O2018       O  0.05882113  0.81523907  0.79177082    -0.74600
O2019       O  0.45356926  0.79180379  0.76007000    -0.87400
O2020       O  0.01975813  0.72930244  0.68439690    -0.80200
C2021       C  0.43074656  0.72818260  0.70957503     0.93700
C2022       C  0.43037384  0.75999216  0.82640635     0.93500
Mg2023     Mg  0.05917901  0.78470081  0.71198138     1.58000
O2024       O  0.07392805  0.81922160  0.68020455    -0.80100
O2025       O  0.04446483  0.74963621  0.74255943    -0.74300
O2026       O  0.43267258  0.73460109  0.73579823    -0.80200
O2027       O  0.44529768  0.85486651  0.82862944    -0.81900
O2028       O  0.07767174  0.87302811  0.76710235    -0.80200
C2029       C  0.02018033  0.73983541  0.74934533     0.88000
O2030       O  0.05701227  0.81504501  0.74507290    -0.87400
O2031       O  0.01644634  0.79539719  0.70123633    -0.87500
O2032       O  0.01517360  0.84205490  0.69880587    -0.74500
Mg2033     Mg  0.46385540  0.74902191  0.77042309     1.58000
O2034       O  0.45239263  0.72912218  0.69352192    -0.81900
H2035       H  0.01563370  0.78875580  0.83382929    -0.05600
O2036       O  0.01151340  0.85468671  0.76352218    -0.87200
H2037       H  0.48951491  0.88372692  0.74170750    -0.05400
H2038       H  0.08712274  0.79443589  0.76678292    -0.05600
C2039       C  0.48881676  0.86586654  0.75608030     0.87900
C2040       C  0.00152382  0.78786786  0.81576264     0.88500
C2041       C  0.06860111  0.80795777  0.76762414     0.88600
H2042       H  0.99387889  0.81610045  0.67187510    -0.05600
O2043       O  0.45173087  0.79271212  0.71339185    -0.74600
Mg2044     Mg  0.04544303  0.85753025  0.73368360     1.58000
H2045       H  0.42444215  0.81428024  0.73883834    -0.05600
C2046       C  0.46074939  0.87700695  0.82829748     0.93500
O2047       O  0.05685283  0.87928450  0.80909713    -0.81900
C2048       C  0.07860221  0.88090405  0.79297220     0.93600
O2049       O  0.42919739  0.74576393  0.80352962    -0.81800
Mg2050     Mg  0.98680197  0.76198889  0.69868399     1.58200
O2051       O  0.98690682  0.87562712  0.82089765    -0.80200
O2052       O  0.06255237  0.74870475  0.67911504    -0.81900
N2053       N  0.40281663  0.72603172  0.69709586    -0.02600
C2054       C  0.38255689  0.74535885  0.70428325     0.00000
C2055       C  0.36309555  0.74875228  0.68292985    -0.22900
C2056       C  0.37099433  0.73072525  0.66169209    -0.23100
C2057       C  0.39522602  0.71624586  0.67064050    -0.00100
H2058       H  0.34464498  0.76247027  0.68304909     0.13700
H2059       H  0.35934649  0.72858005  0.64210983     0.13700
N2060       N  0.08429240  0.85663765  0.64923333    -0.02600
C2061       C  0.06862668  0.84719016  0.62706976     0.00000
C2062       C  0.07297983  0.86308343  0.60310718    -0.22900
C2063       C  0.09201803  0.88355376  0.61035513    -0.23100
C2064       C  0.09842395  0.87997310  0.63897921    -0.00100
H2065       H  0.06320167  0.86017134  0.58253555     0.13700
H2066       H  0.10040590  0.89899061  0.59562367     0.13700
N2067       N  0.44791852  0.90478810  0.83135999    -0.02600
C2068       C  0.45635710  0.92726881  0.81538187     0.00000
C2069       C  0.43806592  0.94977318  0.81776033    -0.22900
C2070       C  0.41722146  0.94138619  0.83584986    -0.23100
C2071       C  0.42293200  0.91348137  0.84372150    -0.00100
H2072       H  0.43973296  0.97017440  0.80733440     0.13700
H2073       H  0.40013974  0.95497322  0.84297692     0.13700
O2074       O  0.10141066  0.49631791  0.77423269    -0.87500
C2075       C  0.02199122  0.49221448  0.80819098     0.88600
Mg2076     Mg  0.11462569  0.53554011  0.75582490     1.59700
O2077       O  0.03219971  0.95391375  0.74562627    -0.87200
O2078       O  0.09443038  0.95075060  0.76663661    -0.74500
C2079       C  0.50918593  0.57427989  0.67904155     0.93600
O2080       O  0.06367140  0.54462297  0.80499262    -0.74300
O2081       O  0.03517352  0.58065694  0.68151595    -0.81800
Mg2082     Mg  0.08336500  0.50079274  0.81535758     1.58000
C2083       C  0.47781980  0.95993442  0.68159212     0.93500
O2084       O  0.10540986  0.95706644  0.82481600    -0.80100
H2085       H  0.05287812  0.92547946  0.72162316    -0.05400
C2086       C  0.49751175  0.53257009  0.74172956     0.88500
O2087       O  0.10576835  0.51572740  0.71122821    -0.74600
O2088       O  0.04495035  0.98288744  0.79927190    -0.87400
O2089       O  0.48264360  0.94917113  0.70579520    -0.80200
C2090       C  0.48014305  0.92843826  0.79547801     0.93700
C2091       C  0.09479878  0.93256842  0.82907583     0.93500
Mg2092     Mg  0.02092173  0.50556089  0.69059756     1.58000
O2093       O  0.50047508  0.54890945  0.68174513    -0.80100
O2094       O  0.04056378  0.96097004  0.70020477    -0.74300
O2095       O  0.00527599  0.93145140  0.80497356    -0.80200
O2096       O  0.12174520  0.52359064  0.83255351    -0.81900
O2097       O  0.10007811  0.57395551  0.69896472    -0.80200
C2098       C  0.04236285  0.94585586  0.72267332     0.88000
O2099       O  0.06035732  0.52357925  0.70366393    -0.87400
O2100       O  0.50685664  0.50982933  0.73235196    -0.87500
O2101       O  0.01181369  0.55548094  0.74004488    -0.74500
Mg2102     Mg  0.04945996  0.94102567  0.78543225     1.58000
O2103       O  0.47439209  0.93192748  0.76949609    -0.81900
H2104       H  0.13028160  0.97185831  0.75472206    -0.05600
O2105       O  0.07283133  0.54961028  0.75957593    -0.87200
H2106       H  0.05268997  0.57953287  0.78211450    -0.05400
H2107       H  0.08494054  0.50328251  0.67544404    -0.05600
C2108       C  0.06274856  0.55891156  0.78204485     0.87900
C2109       C  0.10964717  0.97315058  0.76475431     0.88500
C2110       C  0.08352241  0.51373179  0.69582958     0.88600
H2111       H  0.47679631  0.53296759  0.75163569    -0.05600
O2112       O  0.49933270  0.49050053  0.79350358    -0.74600
Mg2113     Mg  0.05612379  0.56494722  0.72064172     1.58000
H2114       H  0.02119278  0.50213919  0.82885596    -0.05600
C2115       C  0.12580514  0.54898017  0.82445672     0.93500
O2116       O  0.12613359  0.57811621  0.73692923    -0.81900
C2117       C  0.12409037  0.57889543  0.71028931     0.93600
O2118       O  0.06814291  0.92975376  0.82827108    -0.81800
Mg2119     Mg  0.49084136  0.97108920  0.74916985     1.58200
O2120       O  0.12339507  0.55620665  0.79864637    -0.80200
O2121       O  0.47832429  0.98655153  0.67899131    -0.81900
N2122       N  0.11229627  0.90755535  0.82609299    -0.02600
C2123       C  0.10676890  0.88838183  0.80515523     0.00000
C2124       C  0.13090890  0.87350951  0.79815203    -0.22900
C2125       C  0.15204675  0.88309015  0.81563220    -0.23100
C2126       C  0.14032760  0.90358141  0.83331743    -0.00100
H2127       H  0.13257247  0.85638619  0.78295676     0.13700
H2128       H  0.17344795  0.87475232  0.81610509     0.13700
N2129       N  0.14972648  0.57700362  0.69368392    -0.02600
C2130       C  0.16937968  0.55671627  0.69967199     0.00000
C2131       C  0.18577839  0.55085869  0.67624068    -0.22900
C2132       C  0.17661059  0.56857078  0.65511733    -0.23100
C2133       C  0.15483169  0.58516557  0.66621552    -0.00100
H2134       H  0.20349329  0.53627087  0.67507276     0.13700
H2135       H  0.18583708  0.56978044  0.63412236     0.13700
N2136       N  0.48004253  0.94262501  0.65651506    -0.02600
C2137       C  0.50007265  0.94887799  0.63665327     0.00000
C2138       C  0.50872954  0.92471634  0.62272486    -0.22900
C2139       C  0.49296330  0.90282774  0.63354631    -0.23100
C2140       C  0.47475748  0.91408996  0.65392023    -0.00100
H2141       H  0.52428238  0.92326610  0.60585256     0.13700
H2142       H  0.49420762  0.88116685  0.62618282     0.13700
O2143       O  0.31189831  0.80683983  0.49293629    -0.87500
C2144       C  0.30073497  0.73926438  0.94233817     0.88600
Mg2145     Mg  0.34569251  0.80826475  0.52251070     1.58100
O2146       O  0.25332052  0.74444654  0.49875287    -0.87200
O2147       O  0.26521315  0.80932153  0.49298858    -0.74500
C2148       C  0.34755455  0.67939271  0.57850646     0.93600
O2149       O  0.35814830  0.76606226  0.96437449    -0.74300
O2150       O  0.36425288  0.70055586  0.57686187    -0.81800
Mg2151     Mg  0.32252185  0.79641535  0.95004909     1.58000
C2152       C  0.23140586  0.68037863  0.54946214     0.93500
O2153       O  0.28723859  0.82859928  0.93647578    -0.80100
H2154       H  0.22440044  0.76658455  0.52067375    -0.05400
C2155       C  0.31943784  0.69173582  0.50790112     0.88500
O2156       O  0.31581257  0.79357067  0.55815867    -0.74600
O2157       O  0.29314258  0.76208425  0.95313764    -0.87400
O2158       O  0.23070831  0.68887738  0.52377337    -0.80200
C2159       C  0.22892931  0.71129229  0.93299038     0.93700
C2160       C  0.26123945  0.82799499  0.92856115     0.93500
Mg2161     Mg  0.28741009  0.71351648  0.55935199     1.58000
O2162       O  0.32126467  0.68190530  0.57288513    -0.80100
O2163       O  0.25174885  0.74426188  0.54543284    -0.74300
O2164       O  0.23585612  0.73746723  0.93316041    -0.80200
O2165       O  0.35802369  0.82992397  0.94504263    -0.81900
O2166       O  0.37385783  0.76856636  0.57733633    -0.80200
C2167       C  0.24228215  0.75221338  0.52137167     0.88000
O2168       O  0.31678840  0.74690956  0.55664634    -0.87400
O2169       O  0.29750884  0.70344852  0.51662577    -0.87500
O2170       O  0.34407731  0.70095155  0.51403610    -0.74500
Mg2171     Mg  0.25047884  0.77277425  0.96386674     1.58000
O2172       O  0.22890792  0.69717405  0.95586196    -0.81900
H2173       H  0.29070164  0.83725110  0.51369662    -0.05600
O2174       O  0.35610090  0.76573325  0.51110969    -0.87200
H2175       H  0.38564193  0.74425573  0.98937836    -0.05400
H2176       H  0.29547877  0.76830664  0.58650293    -0.05600
C2177       C  0.36755548  0.75837142  0.98853684     0.87900
C2178       C  0.28953956  0.81872164  0.50023400     0.88500
C2179       C  0.30913845  0.76934902  0.56808520     0.88600
H2180       H  0.31754373  0.67377941  0.49374620    -0.05600
O2181       O  0.29307388  0.71528315  0.95230943    -0.74600
Mg2182     Mg  0.35917267  0.73573113  0.54453923     1.58000
H2183       H  0.31490035  0.73972668  0.92426929    -0.05600
C2184       C  0.37926824  0.83068508  0.96181865     0.93500
O2185       O  0.37964504  0.81085945  0.55707434    -0.81900
C2186       C  0.38111921  0.79454917  0.57863691     0.93600
O2187       O  0.24693217  0.80510696  0.92851733    -0.81800
Mg2188     Mg  0.26294361  0.70150557  0.48858319     1.58200
O2189       O  0.37676893  0.82333852  0.48782309    -0.80200
O2190       O  0.25451971  0.67891579  0.56318097    -0.81900
N2191       N  0.22814310  0.69635467  0.90614405    -0.02600
C2192       C  0.24873964  0.70196601  0.88661127     0.00000
C2193       C  0.25566113  0.67813865  0.87128371    -0.22900
C2194       C  0.23833904  0.65692873  0.88079752    -0.23100
C2195       C  0.22087105  0.66841403  0.90160127    -0.00100
H2196       H  0.27080332  0.67674344  0.85405702     0.13700
H2197       H  0.23754623  0.63568930  0.87210939     0.13700
N2198       N  0.35914734  0.65120188  0.58094234    -0.02600
C2199       C  0.35201930  0.63098145  0.56160681     0.00000
C2200       C  0.37289088  0.61084023  0.55915401    -0.22900
C2201       C  0.39370147  0.61831713  0.57781772    -0.23100
C2202       C  0.38487634  0.64291146  0.59171256    -0.00100
H2203       H  0.37272079  0.59227207  0.54562949     0.13700
H2204       H  0.41307567  0.60637995  0.58060505     0.13700
N2205       N  0.40764953  0.83607597  0.95125812    -0.02600
C2206       C  0.43065393  0.82157864  0.96089845     0.00000
C2207       C  0.45532995  0.83080211  0.94853366    -0.22900
C2208       C  0.44770908  0.85144077  0.92990286    -0.23100
C2209       C  0.41822547  0.85380648  0.93073308    -0.00100
H2210       H  0.47666216  0.82332327  0.95267421     0.13700
H2211       H  0.46260575  0.86328854  0.91707372     0.13700
O2212       O  0.02480067  0.70392319  0.56095580    -0.87500
C2213       C  0.05948781  0.78257778  0.56484662     0.88600
Mg2214     Mg  0.00753993  0.69103164  0.52115163     1.58100
O2215       O  0.99664124  0.77358922  0.60290950    -0.87200
O2216       O  0.01643511  0.71098045  0.60637690    -0.74500
C2217       C  0.43118425  0.79897467  0.98211880     0.93600
O2218       O  0.05766753  0.74050628  0.51307792    -0.74300
O2219       O  0.43524798  0.77358382  0.97402711    -0.81800
Mg2220     Mg  0.06616028  0.72109481  0.55741050     1.58000
C2221       C  0.43290561  0.82890649  0.59628317     0.93500
O2222       O  0.07435687  0.69917481  0.60078415    -0.80100
H2223       H  0.47205793  0.75330009  0.63113449    -0.05400
C2224       C  0.99424561  0.80891851  0.52452752     0.88500
O2225       O  0.46256995  0.70075837  0.53994866    -0.74600
O2226       O  0.05014627  0.75983675  0.57422724    -0.87400
O2227       O  0.45691766  0.82396718  0.60760819    -0.80200
C2228       C  0.04780835  0.82429147  0.62752483     0.93700
C2229       C  0.07917950  0.70993866  0.62498752     0.93500
Mg2230     Mg  0.44236981  0.78554871  0.55075182     1.58000
O2231       O  0.43359569  0.80620804  0.50792756    -0.80100
O2232       O  0.45122855  0.76574238  0.59535081    -0.74300
O2233       O  0.05652186  0.79892155  0.62482588    -0.80200
O2234       O  0.08260838  0.68193082  0.53708414    -0.81900
O2235       O  0.45158830  0.70706114  0.98176916    -0.80200
C2236       C  0.47347566  0.76374585  0.61074741     0.88000
O2237       O  0.45558625  0.74632408  0.53234877    -0.87400
O2238       O  0.48416395  0.79961910  0.54699729    -0.87500
O2239       O  0.99332282  0.79462674  0.00158120    -0.74500
Mg2240     Mg  0.03607704  0.75557112  0.61597987     1.58000
O2241       O  0.02181991  0.83066460  0.62505576    -0.81900
H2242       H  0.00412297  0.67548860  0.58495824    -0.05600
O2243       O  0.01204908  0.73289300  0.00731023    -0.87200
H2244       H  0.03580625  0.75214727  0.97772773    -0.05400
H2245       H  0.42671862  0.72186487  0.55186471    -0.05600
C2246       C  0.03500824  0.74222115  0.99839163     0.87900
C2247       C  0.01463738  0.69586530  0.58390846     0.88500
C2248       C  0.44735212  0.72315745  0.54183035     0.88600
H2249       H  0.00430310  0.82954082  0.52445580    -0.05600
O2250       O  0.04518299  0.80548701  0.56652808    -0.74600
Mg2251     Mg  0.47363133  0.75079245  0.99122349     1.58000
H2252       H  0.08020330  0.78297695  0.55494003    -0.05600
C2253       C  0.07685611  0.67843926  0.01110268     0.93500
O2254       O  0.48885707  0.67975154  0.97831506    -0.81900
C2255       C  0.46220122  0.68256436  0.97750651     0.93600
O2256       O  0.07867416  0.73655647  0.62758827    -0.81800
Mg2257     Mg  0.00087250  0.81495621  0.58593078     1.58200
O2258       O  0.05172311  0.68145458  0.00160838    -0.80200
O2259       O  0.43086371  0.82812794  0.56964315    -0.81900
N2260       N  0.40726888  0.82700998  0.61288729    -0.02600
C2261       C  0.38762139  0.80671647  0.60690083     0.00000
C2262       C  0.37121851  0.80086194  0.63032947    -0.22900
C2263       C  0.38037829  0.81858155  0.65145039    -0.23100
C2264       C  0.40215626  0.83517781  0.64035258    -0.00100
H2265       H  0.35350445  0.78627242  0.63149598     0.13700
H2266       H  0.37114750  0.81979418  0.67244326     0.13700
N2267       N  0.07695823  0.69262926  0.65006505    -0.02600
C2268       C  0.05693843  0.69888963  0.66993498     0.00000
C2269       C  0.04828798  0.67473392  0.68387652    -0.22900
C2270       C  0.06404579  0.65284049  0.67305358    -0.23100
C2271       C  0.08224193  0.66409371  0.65266559    -0.00100
H2272       H  0.03274271  0.67329052  0.70075649     0.13700
H2273       H  0.06280021  0.63118258  0.68042444     0.13700
N2274       N  0.44470471  0.65754800  0.98047495    -0.02600
C2275       C  0.45023538  0.63836007  0.00139809     0.00000
C2276       C  0.42609890  0.62347787  0.00839070    -0.22900
C2277       C  0.40495854  0.63306823  0.99092106    -0.23100
C2278       C  0.41667317  0.65357340  0.97324943    -0.00100
H2279       H  0.42443870  0.60634425  0.02357429     0.13700
H2280       H  0.38355811  0.62472816  0.99044639     0.13700
O2281       O  0.30420804  0.56459656  0.49606516    -0.87500
C2282       C  0.23649026  0.61625994  0.50613281     0.88600
Mg2283     Mg  0.30747798  0.53570752  0.96189708     1.58100
O2284       O  0.24039835  0.56017631  0.55395597    -0.87200
O2285       O  0.30540644  0.56447087  0.54275357    -0.74500
C2286       C  0.17916946  0.97951964  0.95745975     0.93600
O2287       O  0.26429074  0.59345866  0.94918659    -0.74300
O2288       O  0.20112232  0.97946061  0.94173116    -0.81800
Mg2289     Mg  0.29370230  0.60737656  0.48560056     1.58000
C2290       C  0.17772349  0.51003114  0.57479442     0.93500
O2291       O  0.32519738  0.62008783  0.52071399    -0.80100
H2292       H  0.26184382  0.53855734  0.58356248    -0.05400
C2293       C  0.19025887  0.55037279  0.98612384     0.88500
O2294       O  0.29252540  0.99959092  0.49118260    -0.74600
O2295       O  0.25876569  0.60451008  0.51393273    -0.87400
O2296       O  0.18505355  0.53605274  0.57491625    -0.80200
C2297       C  0.20777929  0.62672350  0.57736367     0.93700
C2298       C  0.32475868  0.62801691  0.54654424     0.93500
Mg2299     Mg  0.21168769  0.99946631  0.51885296     1.58000
O2300       O  0.18090932  0.98604401  0.48365280    -0.80100
O2301       O  0.24131784  0.01347890  0.55516221    -0.74300
O2302       O  0.23391262  0.62490131  0.57052158    -0.80200
O2303       O  0.32828771  0.61237188  0.95252715    -0.81900
O2304       O  0.26955692  0.98078766  0.93375959    -0.80200
C2305       C  0.24817069  0.53764948  0.56516326     0.88000
O2306       O  0.24587850  0.00193177  0.49012019    -0.87400
O2307       O  0.20131857  0.54224832  0.50861197    -0.87500
O2308       O  0.19997612  0.54331784  0.96188349    -0.74500
Mg2309     Mg  0.26903434  0.59424144  0.55669739     1.58000
O2310       O  0.19182975  0.60494417  0.57695467    -0.81900
H2311       H  0.33361894  0.54321119  0.51801624    -0.05600
O2312       O  0.26493134  0.54672710  0.95070603    -0.87200
H2313       H  0.24353643  0.56830716  0.92105114    -0.05400
H2314       H  0.26667632  0.97159386  0.51132682    -0.05600
C2315       C  0.25731420  0.56925375  0.93936409     0.87900
C2316       C  0.31531829  0.55704163  0.51870180     0.88500
C2317       C  0.26809171  0.99008506  0.49783494     0.88600
H2318       H  0.17225849  0.56458800  0.98713564    -0.05600
O2319       O  0.21205656  0.60697711  0.51321032    -0.74600
Mg2320     Mg  0.23551001  0.51293726  0.94742603     1.58000
H2321       H  0.23783889  0.63452188  0.49230646    -0.05600
C2322       C  0.32921157  0.59710381  0.93030627     0.93500
O2323       O  0.31146747  0.00186210  0.92754156    -0.81900
C2324       C  0.29561260  0.97995222  0.92647959     0.93600
O2325       O  0.30175212  0.62922351  0.56061384    -0.81800
Mg2326     Mg  0.19771705  0.57089891  0.54306231     1.58200
O2327       O  0.32254782  0.57085053  0.93125960    -0.80200
O2328       O  0.17695495  0.99561132  0.55198365    -0.81900
N2329       N  0.33110667  0.61065568  0.90286419    -0.02600
C2330       C  0.31089914  0.60510895  0.88281880     0.00000
C2331       C  0.30811793  0.62727237  0.86421353    -0.22900
C2332       C  0.32727030  0.64734714  0.87243203    -0.23100
C2333       C  0.34198464  0.63687220  0.89586850    -0.00100
H2334       H  0.29409927  0.62840004  0.84605125     0.13700
H2335       H  0.32975628  0.66755776  0.86190524     0.13700
N2336       N  0.19567980  0.65466746  0.58087464    -0.02600
C2337       C  0.20453108  0.67734982  0.56522390     0.00000
C2338       C  0.18652646  0.70000901  0.56836986    -0.22900
C2339       C  0.16567551  0.69145151  0.58654793    -0.23100
C2340       C  0.17097765  0.66325297  0.59373475    -0.00100
H2341       H  0.18899948  0.72099588  0.55935686     0.13700
H2342       H  0.14899746  0.70521268  0.59424163     0.13700
N2343       N  0.15128467  0.97752163  0.94486428    -0.02600
C2344       C  0.12967031  0.99494125  0.95294040     0.00000
C2345       C  0.10808897  0.99481832  0.93336983    -0.22900
C2346       C  0.11620513  0.97658347  0.91237794    -0.23100
C2347       C  0.14302146  0.96622721  0.91935495    -0.00100
H2348       H  0.08796998  0.00585299  0.93485595     0.13700
H2349       H  0.10291706  0.97082697  0.89459385     0.13700
O2350       O  0.31112359  0.75194085  0.81645577    -0.87500
C2351       C  0.29967337  0.81926138  0.86721390     0.88600
Mg2352     Mg  0.34531890  0.74947265  0.78772585     1.58100
O2353       O  0.25278433  0.81459553  0.81051030    -0.87200
O2354       O  0.26447666  0.74959261  0.81539124    -0.74500
C2355       C  0.34921497  0.87672154  0.72921082     0.93600
O2356       O  0.35701394  0.79333730  0.84469694    -0.74300
O2357       O  0.36516650  0.85494426  0.72962026    -0.81800
Mg2358     Mg  0.32148363  0.76295081  0.85915139     1.58000
C2359       C  0.23224054  0.87800842  0.76002658     0.93500
O2360       O  0.28743837  0.73079355  0.87281428    -0.80100
H2361       H  0.22337756  0.79320496  0.78855727    -0.05400
C2362       C  0.32050177  0.86626347  0.80044251     0.88500
O2363       O  0.31569218  0.76347607  0.75141254    -0.74600
O2364       O  0.29205885  0.79673432  0.85586991    -0.87400
O2365       O  0.23179781  0.87008450  0.78585818    -0.80200
C2366       C  0.22777989  0.84709724  0.87627194     0.93700
C2367       C  0.26138209  0.72995567  0.88009299     0.93500
Mg2368     Mg  0.28796460  0.84423366  0.74987809     1.58000
O2369       O  0.32308203  0.87489659  0.73605288    -0.80100
O2370       O  0.25159362  0.81446130  0.76382155    -0.74300
O2371       O  0.23444232  0.82084442  0.87531502    -0.80200
O2372       O  0.35587664  0.72948447  0.86484964    -0.81900
O2373       O  0.37195783  0.78605648  0.73166547    -0.80200
C2374       C  0.24167777  0.80703639  0.78787279     0.88000
O2375       O  0.31660443  0.81017281  0.75262319    -0.87400
O2376       O  0.29822772  0.85451003  0.79264274    -0.87500
O2377       O  0.34493660  0.85698328  0.79336564    -0.74500
Mg2378     Mg  0.24951572  0.78570676  0.84467682     1.58000
O2379       O  0.22870663  0.86236902  0.85405364    -0.81900
H2380       H  0.29033048  0.72159988  0.79524697    -0.05600
O2381       O  0.35568600  0.79225682  0.79796764    -0.87200
H2382       H  0.38473604  0.81460647  0.81944919    -0.05400
H2383       H  0.29516801  0.78855196  0.72301037    -0.05600
C2384       C  0.36673763  0.80038804  0.82045801     0.87900
C2385       C  0.28891209  0.74009086  0.80873946     0.88500
C2386       C  0.30883760  0.78764556  0.74141210     0.88600
H2387       H  0.31915097  0.88452616  0.81426775    -0.05600
O2388       O  0.29269914  0.84346557  0.85739018    -0.74600
Mg2389     Mg  0.35928406  0.82090401  0.76351634     1.58000
H2390       H  0.31344816  0.81831572  0.88552938    -0.05600
C2391       C  0.37783056  0.72953812  0.84912239     0.93500
O2392       O  0.38005436  0.74561357  0.75459408    -0.81900
C2393       C  0.37929042  0.76003553  0.73178474     0.93600
O2394       O  0.24552670  0.75186440  0.87903264    -0.81800
Mg2395     Mg  0.26329005  0.85737695  0.82097490     1.58200
O2396       O  0.37609448  0.73605741  0.82292827    -0.80200
O2397       O  0.25524804  0.87921223  0.74595873    -0.81900
N2398       N  0.36131296  0.90466658  0.72570395    -0.02600
C2399       C  0.35246514  0.92734403  0.74136412     0.00000
C2400       C  0.37047840  0.94999902  0.73823559    -0.22900
C2401       C  0.39132956  0.94144518  0.72005620    -0.23100
C2402       C  0.38601909  0.91325232  0.71285165    -0.00100
H2403       H  0.36801113  0.97098146  0.74726093     0.13700
H2404       H  0.40801336  0.95520588  0.71237393     0.13700
N2405       N  0.22588136  0.86064380  0.90371657    -0.02600
C2406       C  0.24608723  0.85509854  0.92376422     0.00000
C2407       C  0.24885844  0.87725812  0.94237633    -0.22900
C2408       C  0.22970197  0.89732841  0.93416004    -0.23100
C2409       C  0.21499512  0.88685479  0.91071740    -0.00100
H2410       H  0.26287388  0.87838643  0.96054136     0.13700
H2411       H  0.22720989  0.91753599  0.94469158     0.13700
N2412       N  0.40571329  0.72753643  0.86172044    -0.02600
C2413       C  0.42733134  0.74495229  0.85364521     0.00000
C2414       C  0.44890534  0.74483735  0.87322345    -0.22900
C2415       C  0.44078156  0.72661006  0.89421832    -0.23100
C2416       C  0.41396769  0.71624892  0.88723513    -0.00100
H2417       H  0.46902475  0.75587231  0.87174098     0.13700
H2418       H  0.45406526  0.72086130  0.91200788     0.13700
O2419       O  0.24021046  0.49690703  0.74993705    -0.87500
C2420       C  0.18944238  0.50836317  0.81804359     0.88600
Mg2421     Mg  0.26958585  0.96351119  0.74723261     1.58100
O2422       O  0.24509498  0.55683765  0.81365261    -0.87200
O2423       O  0.24119072  0.54356887  0.74843313    -0.74500
C2424       C  0.32807769  0.96129983  0.87358547     0.93600
O2425       O  0.21291742  0.95095159  0.79254362    -0.74300
O2426       O  0.32810140  0.94718528  0.85071136    -0.81800
Mg2427     Mg  0.19782339  0.48572905  0.76203738     1.58000
C2428       C  0.29575396  0.57800121  0.87801942     0.93500
O2429       O  0.18314325  0.51856675  0.72923809    -0.80100
H2430       H  0.26628643  0.58725425  0.79289541    -0.05400
C2431       C  0.25627209  0.98926543  0.86424941     0.88500
O2432       O  0.30525046  0.49425707  0.76114743    -0.74600
O2433       O  0.20089241  0.51573050  0.79547007    -0.87400
O2434       O  0.26975237  0.57859820  0.87011223    -0.80200
C2435       C  0.17772370  0.58067600  0.84476788     0.93700
C2436       C  0.17588395  0.54455025  0.72793709     0.93500
Mg2437     Mg  0.30652174  0.52277946  0.84271227     1.58000
O2438       O  0.32115054  0.48747468  0.87341910    -0.80100
O2439       O  0.29178011  0.55932413  0.81359408    -0.74300
O2440       O  0.18022647  0.57333458  0.81876190    -0.80200
O2441       O  0.19274070  0.95054859  0.72971315    -0.81900
O2442       O  0.32628578  0.93887651  0.78280993    -0.80200
C2443       C  0.26745187  0.56872311  0.80635474     0.88000
O2444       O  0.30367846  0.49444855  0.80782711    -0.87400
O2445       O  0.26386002  0.51208464  0.85344639    -0.87500
O2446       O  0.26393314  0.96528416  0.85427838    -0.74500
Mg2447     Mg  0.21130466  0.55826251  0.78407484     1.58000
O2448       O  0.19896434  0.57990756  0.86154869    -0.81900
H2449       H  0.26153155  0.51830748  0.72009144    -0.05600
O2450       O  0.25948679  0.95344832  0.78996058    -0.87200
H2451       H  0.23944759  0.92378384  0.81284231    -0.05400
H2452       H  0.33260016  0.51658261  0.78590427    -0.05600
C2453       C  0.23755607  0.94173779  0.79868456     0.87900
C2454       C  0.24786601  0.51934798  0.73850490     0.88500
C2455       C  0.31471747  0.50221202  0.78520772     0.88600
H2456       H  0.24211016  0.98972830  0.88232075    -0.05600
O2457       O  0.19885294  0.51604970  0.84220660    -0.74600
Mg2458     Mg  0.29405668  0.95150811  0.81800009     1.58000
H2459       H  0.17135739  0.49424503  0.81720187    -0.05600
C2460       C  0.20943867  0.92938490  0.72807518     0.93500
O2461       O  0.30247510  0.92890825  0.74340356    -0.81900
C2462       C  0.32558879  0.93037328  0.75712277     0.93600
O2463       O  0.17735841  0.56086090  0.74950064    -0.81800
Mg2464     Mg  0.23447395  0.54640804  0.85653785     1.58200
O2465       O  0.23572743  0.93189958  0.73370237    -0.80200
O2466       O  0.31006834  0.55511766  0.87805723    -0.81900
N2467       N  0.19784845  0.90119210  0.72563469    -0.02600
C2468       C  0.20498403  0.88096385  0.74495793     0.00000
C2469       C  0.18413182  0.86079950  0.74738156    -0.22900
C2470       C  0.16332468  0.86827027  0.72871292    -0.23100
C2471       C  0.17213127  0.89288661  0.71484483    -0.00100
H2472       H  0.18431395  0.84221898  0.76088874     0.13700
H2473       H  0.14396629  0.85631163  0.72590585     0.13700
N2474       N  0.14934193  0.58607493  0.85532222    -0.02600
C2475       C  0.12633431  0.57158996  0.84567142     0.00000
C2476       C  0.10165714  0.58083047  0.85802208    -0.22900
C2477       C  0.10928156  0.60146591  0.87665695    -0.23100
C2478       C  0.13876672  0.60381312  0.87584054    -0.00100
H2479       H  0.08032238  0.57336367  0.85387124     0.13700
H2480       H  0.09438804  0.61332379  0.88948040     0.13700
N2481       N  0.32885698  0.94635692  0.90042871    -0.02600
C2482       C  0.30825360  0.95196340  0.91995552     0.00000
C2483       C  0.30132202  0.92813095  0.93527048    -0.22900
C2484       C  0.31864643  0.90692298  0.92575693    -0.23100
C2485       C  0.33612386  0.91841410  0.90496505    -0.00100
H2486       H  0.28617227  0.92673115  0.95249013     0.13700
H2487       H  0.31943537  0.88568084  0.93443824     0.13700
C2488       C  0.15184787  0.64904826  0.94082602     0.04000
C2489       C  0.17916707  0.65973456  0.93507444    -0.12100
C2490       C  0.19342266  0.65401508  0.90959582     0.01500
C2491       C  0.18023447  0.63523938  0.89014530    -0.10700
C2492       C  0.15424164  0.62210299  0.89655336     0.04000
C2493       C  0.14039882  0.62922525  0.92222421    -0.10100
H2494       H  0.18843364  0.67335207  0.95043730     0.09600
H2495       H  0.18928636  0.63209727  0.86933431     0.07100
H2496       H  0.11976858  0.62068473  0.92705641     0.07000
C2497       C  0.90275292  0.37210362  0.41002387     0.04000
C2498       C  0.87676042  0.38524252  0.41643083    -0.12100
C2499       C  0.86357400  0.40401621  0.39697764     0.01500
C2500       C  0.87782973  0.40973195  0.37149901    -0.10700
C2501       C  0.90514943  0.39904779  0.36575069     0.04000
C2502       C  0.91659668  0.37922584  0.38435304    -0.10100
H2503       H  0.86770540  0.38210231  0.43724075     0.09600
H2504       H  0.86856208  0.42334240  0.35613276     0.07100
H2505       H  0.93722521  0.37068413  0.37951838     0.07000
C2506       C  0.65664619  0.40477715  0.18950550     0.04000
C2507       C  0.66519996  0.42965775  0.17539436    -0.12100
C2508       C  0.65044453  0.44051339  0.15155637     0.01500
C2509       C  0.62729803  0.42475047  0.14152307    -0.10700
C2510       C  0.61943251  0.39856284  0.15376774     0.04000
C2511       C  0.63433063  0.38895422  0.17741879    -0.10100
H2512       H  0.68453213  0.43945006  0.18174585     0.09600
H2513       H  0.61637316  0.43177538  0.12299263     0.07100
H2514       H  0.62991482  0.36789244  0.18481663     0.07000
C2515       C  0.91264134  0.36136297  0.15544110     0.04000
C2516       C  0.93857007  0.37458829  0.14880475    -0.12100
C2517       C  0.94859160  0.39844595  0.16398477     0.01500
C2518       C  0.93210081  0.40819739  0.18669571    -0.10700
C2519       C  0.90476377  0.39737398  0.19242498     0.04000
C2520       C  0.89520535  0.37422504  0.17632597    -0.10100
H2521       H  0.95053455  0.36708407  0.13115015     0.09600
H2522       H  0.94000342  0.42500231  0.19959053     0.07100
H2523       H  0.87361004  0.36712206  0.17898409     0.07000
C2524       C  0.60839947  0.14844049  0.14259090     0.04000
C2525       C  0.61841546  0.12457483  0.15776226    -0.12100
C2526       C  0.64434461  0.11134969  0.15112618     0.01500
C2527       C  0.66178270  0.12421464  0.13024504    -0.10700
C2528       C  0.65222817  0.14736846  0.11415199     0.04000
C2529       C  0.62489247  0.15819423  0.11988274    -0.10100
H2530       H  0.60644837  0.11706466  0.17541218     0.09600
H2531       H  0.68337783  0.11711191  0.12758787     0.07100
H2532       H  0.61699528  0.17500485  0.10699436     0.07000
C2533       C  0.93757094  0.14856115  0.15279448     0.04000
C2534       C  0.92971796  0.17475417  0.16503958    -0.12100
C2535       C  0.90657545  0.19052440  0.15501117     0.01500
C2536       C  0.89181284  0.17967531  0.13117235    -0.10700
C2537       C  0.90035942  0.15479094  0.11705913     0.04000
C2538       C  0.92266539  0.13895712  0.12914543    -0.10100
H2539       H  0.94065021  0.18177696  0.18356608     0.09600
H2540       H  0.87249615  0.18946852  0.12482683     0.07100
H2541       H  0.92706792  0.11789141  0.12174821     0.07000
C2542       C  0.89967156  0.19345842  0.40436491     0.04000
C2543       C  0.90970161  0.18742404  0.43183512    -0.12100
C2544       C  0.90206607  0.16259549  0.44620587     0.01500
C2545       C  0.88074798  0.14516279  0.43387744    -0.10700
C2546       C  0.86715481  0.15267538  0.40830283     0.04000
C2547       C  0.87884924  0.17567220  0.39283652    -0.10100
H2548       H  0.92418319  0.20185811  0.44153240     0.09600
H2549       H  0.87579590  0.12520842  0.44360292     0.07100
H2550       H  0.87286392  0.17896593  0.37109125     0.07000
C2551       C  0.65492945  0.41259124  0.36036845     0.04000
C2552       C  0.67624275  0.39515303  0.37269598    -0.12100
C2553       C  0.68982679  0.40265595  0.39827990     0.01500
C2554       C  0.67812766  0.42564628  0.41375175    -0.10700
C2555       C  0.65731509  0.44343925  0.40222183     0.04000
C2556       C  0.64729239  0.43741615  0.37474630    -0.10100
H2557       H  0.68119762  0.37520357  0.36296148     0.09600
H2558       H  0.68410351  0.42893285  0.43550089     0.07100
H2559       H  0.63281850  0.45185533  0.36505212     0.07000
O2560       O  0.99998535  0.06502342  0.06148936    -0.87500
C2561       C  0.56817695  0.11585850  0.05049654     0.88600
Mg2562     Mg  0.99782195  0.03468102  0.09458462     1.58100
O2563       O  0.56330983  0.06040224  0.50197709    -0.87200
O2564       O  0.99818526  0.06521937  0.51479088    -0.74500
C2565       C  0.62626878  0.47818557  0.09700865     0.93600
O2566       O  0.54180816  0.09204414  0.10776685    -0.74300
O2567       O  0.60462485  0.47912875  0.11306495    -0.81800
Mg2568     Mg  0.01154500  0.10751213  0.07288157     1.58000
C2569       C  0.62663700  0.50998900  0.48017631     0.93500
O2570       O  0.97932498  0.12300580  0.03945390    -0.80100
H2571       H  0.54138401  0.03874167  0.47274370    -0.05400
C2572       C  0.61469413  0.04991205  0.06889193     0.88500
O2573       O  0.01254760  0.49961562  0.06401074    -0.74600
O2574       O  0.54548293  0.10467441  0.04305113    -0.87400
O2575       O  0.61877428  0.03587034  0.47987137    -0.80200
C2576       C  0.59625366  0.12700398  0.47828403     0.93700
C2577       C  0.97840000  0.13088489  0.51358509     0.93500
Mg2578     Mg  0.59315969  0.49901818  0.03615702     1.58000
O2579       O  0.62433981  0.48460122  0.07078515    -0.80100
O2580       O  0.56295207  0.51366585  0.50038589    -0.74300
O2581       O  0.57009637  0.12562138  0.48568307    -0.80200
O2582       O  0.97828665  0.11239983  0.10794262    -0.81900
O2583       O  0.53725063  0.47929265  0.12218328    -0.80200
C2584       C  0.55549107  0.03785685  0.49081282     0.88000
O2585       O  0.55927848  0.50103672  0.06524946    -0.87400
O2586       O  0.60344036  0.04180216  0.04651001    -0.87500
O2587       O  0.60527189  0.04271439  0.09318819    -0.74500
Mg2588     Mg  0.53437222  0.09477283  0.50026598     1.58000
O2589       O  0.61170644  0.10486464  0.47794982    -0.81900
H2590       H  0.96988304  0.04440832  0.03977166    -0.05600
O2591       O  0.54055161  0.04538639  0.10533220    -0.87200
H2592       H  0.56310637  0.06609615  0.13469976    -0.05400
H2593       H  0.53793623  0.47172507  0.04317665    -0.05600
C2594       C  0.54871106  0.06758315  0.11689879     0.87900
C2595       C  0.98840233  0.05793418  0.03893520     0.88500
C2596       C  0.53683513  0.48981930  0.05722914     0.88600
H2597       H  0.63256271  0.06428379  0.06774489    -0.05600
O2598       O  0.59230537  0.10649584  0.04246652    -0.74600
Mg2599     Mg  0.57020394  0.51198526  0.10789388     1.58000
H2600       H  0.56747402  0.13371922  0.06486941    -0.05600
C2601       C  0.97677925  0.09552359  0.12898087     0.93500
O2602       O  0.99445241  0.49868859  0.12745606    -0.81900
C2603       C  0.01123522  0.47744163  0.12924117     0.93600
O2604       O  0.00015268  0.12926899  0.49746465    -0.81800
Mg2605     Mg  0.60630254  0.07071145  0.51204078     1.58200
O2606       O  0.98306629  0.06920420  0.12635968    -0.80200
O2607       O  0.62782077  0.49576674  0.50305563    -0.81900
N2608       N  0.60908218  0.15478645  0.47522150    -0.02600
C2609       C  0.60064140  0.17726862  0.49119739     0.00000
C2610       C  0.61892877  0.19977597  0.48881322    -0.22900
C2611       C  0.63977277  0.19138938  0.47072270    -0.23100
C2612       C  0.63406584  0.16348215  0.46285569    -0.00100
H2613       H  0.61725923  0.22017908  0.49923544     0.13700
H2614       H  0.65685115  0.20497834  0.46359125     0.13700
N2615       N  0.97269944  0.10662396  0.15732797    -0.02600
C2616       C  0.98836466  0.09717671  0.17949267     0.00000
C2617       C  0.98401358  0.11307278  0.20345411    -0.22900
C2618       C  0.96497945  0.13354508  0.19620554    -0.23100
C2619       C  0.95857277  0.12996356  0.16758176    -0.00100
H2620       H  0.99379238  0.11016227  0.22402568     0.13700
H2621       H  0.95659540  0.14898476  0.21093629     0.13700
N2622       N  0.65420112  0.47602942  0.10948251    -0.02600
C2623       C  0.67446533  0.49534998  0.10229235     0.00000
C2624       C  0.69394252  0.49872532  0.12363465    -0.22900
C2625       C  0.68604781  0.48069280  0.14486789    -0.23100
C2626       C  0.66180207  0.46622993  0.13592908    -0.00100
H2627       H  0.71240015  0.51243363  0.12350925     0.13700
H2628       H  0.69771041  0.47853166  0.16444462     0.13700
O2629       O  0.49369955  0.31041155  0.30459997    -0.87500
C2630       C  0.94231170  0.29991072  0.23768929     0.88600
Mg2631     Mg  0.52263379  0.34478575  0.30630467     1.58100
O2632       O  0.49773387  0.25104716  0.24132741    -0.87200
O2633       O  0.49406544  0.26367522  0.30619032    -0.74500
C2634       C  0.58020792  0.34554230  0.17758063     0.93600
O2635       O  0.96469112  0.35649921  0.26411278    -0.74300
O2636       O  0.57869064  0.36242318  0.19861492    -0.81800
Mg2637     Mg  0.95070403  0.32071356  0.29453878     1.58000
C2638       C  0.54577296  0.22745407  0.17733767     0.93500
O2639       O  0.93823508  0.28587408  0.32670818    -0.80100
H2640       H  0.51908476  0.22174246  0.26339924    -0.05400
C2641       C  0.50827746  0.31759171  0.18967303     0.88500
O2642       O  0.55882112  0.31523909  0.29177084    -0.74600
O2643       O  0.95356929  0.29180383  0.26007001    -0.87400
O2644       O  0.51975815  0.22930245  0.18439694    -0.80200
C2645       C  0.93074657  0.22818261  0.20957501     0.93700
C2646       C  0.93037384  0.25999218  0.32640633     0.93500
Mg2647     Mg  0.55917902  0.28470083  0.21198141     1.58000
O2648       O  0.57392806  0.31922161  0.18020458    -0.80100
O2649       O  0.54446484  0.24963621  0.24255946    -0.74300
O2650       O  0.93267259  0.23460111  0.23579821    -0.80200
O2651       O  0.94529765  0.35486652  0.32862941    -0.81900
O2652       O  0.57767171  0.37302816  0.26710234    -0.80200
C2653       C  0.52018034  0.23983542  0.24934537     0.88000
O2654       O  0.55701229  0.31504504  0.24507293    -0.87400
O2655       O  0.51644636  0.29539719  0.20123640    -0.87500
O2656       O  0.51517363  0.34205490  0.19880584    -0.74500
Mg2657     Mg  0.96385540  0.24902193  0.27042308     1.58000
O2658       O  0.95239264  0.22912218  0.19352190    -0.81900
H2659       H  0.51563370  0.28875582  0.33382930    -0.05600
O2660       O  0.51151338  0.35468671  0.26352217    -0.87200
H2661       H  0.98951488  0.38372693  0.24170749    -0.05400
H2662       H  0.58712276  0.29443595  0.26678295    -0.05600
C2663       C  0.98881674  0.36586654  0.25608029     0.87900
C2664       C  0.50152381  0.28786787  0.31576263     0.88500
C2665       C  0.56860113  0.30795780  0.26762417     0.88600
H2666       H  0.49387895  0.31610038  0.17187511    -0.05600
O2667       O  0.95173085  0.29271211  0.21339187    -0.74600
Mg2668     Mg  0.54544302  0.35753027  0.23368360     1.58000
H2669       H  0.92444210  0.31428017  0.23883836    -0.05600
C2670       C  0.96074936  0.37700696  0.32829747     0.93500
O2671       O  0.55685283  0.37928450  0.30909714    -0.81900
C2672       C  0.57860219  0.38090408  0.29297219     0.93600
O2673       O  0.92919740  0.24576395  0.30352959    -0.81800
Mg2674     Mg  0.48680200  0.26198890  0.19868401     1.58200
O2675       O  0.48690682  0.37562714  0.32089765    -0.80200
O2676       O  0.56255238  0.24870477  0.17911507    -0.81900
N2677       N  0.90281664  0.22603173  0.19709583    -0.02600
C2678       C  0.88255691  0.24535887  0.20428322     0.00000
C2679       C  0.86309557  0.24875231  0.18292983    -0.22900
C2680       C  0.87099434  0.23072528  0.16169206    -0.23100
C2681       C  0.89522603  0.21624588  0.17064047    -0.00100
H2682       H  0.84464501  0.26247030  0.18304907     0.13700
H2683       H  0.85934649  0.22858008  0.14210981     0.13700
N2684       N  0.58429241  0.35663765  0.14923335    -0.02600
C2685       C  0.56862669  0.34719015  0.12706978     0.00000
C2686       C  0.57297985  0.36308345  0.10310727    -0.22900
C2687       C  0.59201803  0.38355377  0.11035516    -0.23100
C2688       C  0.59842396  0.37997309  0.13897924    -0.00100
H2689       H  0.56320160  0.36017132  0.08253549     0.13700
H2690       H  0.60040588  0.39899062  0.09562372     0.13700
N2691       N  0.94791849  0.40478811  0.33136001    -0.02600
C2692       C  0.95635708  0.42726884  0.31538191     0.00000
C2693       C  0.93806593  0.44977326  0.31776041    -0.22900
C2694       C  0.91722144  0.44138624  0.33584994    -0.23100
C2695       C  0.92293198  0.41348140  0.34372155    -0.00100
H2696       H  0.93973299  0.47017441  0.30733456     0.13700
H2697       H  0.90013977  0.45497323  0.34297697     0.13700
O2698       O  0.60141064  0.99631793  0.27423265    -0.87500
C2699       C  0.52199125  0.99221450  0.30819100     0.88600
Mg2700     Mg  0.61462568  0.03554012  0.25582487     1.59700
O2701       O  0.53219969  0.45391374  0.24562629    -0.87200
O2702       O  0.59443037  0.45075057  0.26663663    -0.74500
C2703       C  0.00918595  0.07427988  0.17904153     0.93600
O2704       O  0.56367142  0.04462297  0.30499261    -0.74300
O2705       O  0.53517355  0.08065693  0.18151592    -0.81800
Mg2706     Mg  0.58336502  0.00079274  0.31535755     1.58000
C2707       C  0.97781979  0.45993442  0.18159213     0.93500
O2708       O  0.60540986  0.45706644  0.32481599    -0.80100
H2709       H  0.55287806  0.42547945  0.22162318    -0.05400
C2710       C  0.99751176  0.03257008  0.24172953     0.88500
O2711       O  0.60576834  0.01572741  0.21122819    -0.74600
O2712       O  0.54495034  0.48288742  0.29927192    -0.87400
O2713       O  0.98264357  0.44917112  0.20579521    -0.80200
C2714       C  0.98014304  0.42843829  0.29547803     0.93700
C2715       C  0.59479878  0.43256843  0.32907584     0.93500
Mg2716     Mg  0.52092174  0.00556089  0.19059757     1.58000
O2717       O  0.00047510  0.04890944  0.18174512    -0.80100
O2718       O  0.54056379  0.46097003  0.20020479    -0.74300
O2719       O  0.50527597  0.43145141  0.30497359    -0.80200
O2720       O  0.62174524  0.02359061  0.33255346    -0.81900
O2721       O  0.60007811  0.07395552  0.19896470    -0.80200
C2722       C  0.54236284  0.44585583  0.22267334     0.88000
O2723       O  0.56035731  0.02357926  0.20366391    -0.87400
O2724       O  0.00685663  0.00982932  0.23235196    -0.87500
O2725       O  0.51181369  0.05548095  0.24004486    -0.74500
Mg2726     Mg  0.54945994  0.44102565  0.28543227     1.58000
O2727       O  0.97439207  0.43192750  0.26949611    -0.81900
H2728       H  0.63028157  0.47185830  0.25472212    -0.05600
O2729       O  0.57283133  0.04961032  0.25957592    -0.87200
H2730       H  0.55268998  0.07953289  0.28211453    -0.05400
H2731       H  0.58494052  0.00328261  0.17544415    -0.05600
C2732       C  0.56274857  0.05891158  0.28204485     0.87900
C2733       C  0.60964715  0.47315057  0.26475432     0.88500
C2734       C  0.58352241  0.01373179  0.19582953     0.88600
H2735       H  0.97679620  0.03296758  0.25163570    -0.05600
O2736       O  0.99933268  0.99050056  0.29350358    -0.74600
Mg2737     Mg  0.55612379  0.06494723  0.22064171     1.58000
H2738       H  0.52119281  0.00213918  0.32885588    -0.05600
C2739       C  0.62580516  0.04898015  0.32445669     0.93500
O2740       O  0.62613360  0.07811621  0.23692921    -0.81900
C2741       C  0.62409038  0.07889542  0.21028930     0.93600
O2742       O  0.56814291  0.42975376  0.32827111    -0.81800
Mg2743     Mg  0.99084135  0.47108921  0.24916986     1.58200
O2744       O  0.62339508  0.05620665  0.29864634    -0.80200
O2745       O  0.97832429  0.48655153  0.17899132    -0.81900
N2746       N  0.61229628  0.40755536  0.32609298    -0.02600
C2747       C  0.60676889  0.38838185  0.30515522     0.00000
C2748       C  0.63090887  0.37350949  0.29815201    -0.22900
C2749       C  0.65204674  0.38309012  0.31563220    -0.23100
C2750       C  0.64032760  0.40358140  0.33331743    -0.00100
H2751       H  0.63257242  0.35638623  0.28295680     0.13700
H2752       H  0.67344786  0.37475226  0.31610510     0.13700
N2753       N  0.64972649  0.07700359  0.19368390    -0.02600
C2754       C  0.66937969  0.05671624  0.19967197     0.00000
C2755       C  0.68577840  0.05085865  0.17624066    -0.22900
C2756       C  0.67661060  0.06857076  0.15511730    -0.23100
C2757       C  0.65483171  0.08516556  0.16621550    -0.00100
H2758       H  0.70349329  0.03627082  0.17507272     0.13700
H2759       H  0.68583710  0.06978043  0.13412237     0.13700
N2760       N  0.98004253  0.44262501  0.15651507    -0.02600
C2761       C  0.00007267  0.44887798  0.13665329     0.00000
C2762       C  0.00872962  0.42471633  0.12272487    -0.22900
C2763       C  0.99296335  0.40282769  0.13354635    -0.23100
C2764       C  0.97475751  0.41408996  0.15392026    -0.00100
H2765       H  0.02428239  0.42326608  0.10585268     0.13700
H2766       H  0.99420767  0.38116693  0.12618291     0.13700
O2767       O  0.81189828  0.30683988  0.99293630    -0.87500
C2768       C  0.80073498  0.23926439  0.44233817     0.88600
Mg2769     Mg  0.84569251  0.30826474  0.02251070     1.58100
O2770       O  0.75332050  0.24444651  0.99875284    -0.87200
O2771       O  0.76521312  0.30932155  0.99298857    -0.74500
C2772       C  0.84755452  0.17939270  0.07850644     0.93600
O2773       O  0.85814833  0.26606226  0.46437448    -0.74300
O2774       O  0.86425284  0.20055585  0.07686184    -0.81800
Mg2775     Mg  0.82252187  0.29641536  0.45004910     1.58000
C2776       C  0.73140586  0.18037862  0.04946211     0.93500
O2777       O  0.78723859  0.32859930  0.43647580    -0.80100
H2778       H  0.72440047  0.26658457  0.02067373    -0.05400
C2779       C  0.81943785  0.19173583  0.00790111     0.88500
O2780       O  0.81581258  0.29357063  0.05815867    -0.74600
O2781       O  0.79314259  0.26208426  0.45313766    -0.87400
O2782       O  0.73070830  0.18887735  0.02377334    -0.80200
C2783       C  0.72892930  0.21129229  0.43299041     0.93700
C2784       C  0.76123946  0.32799499  0.42856117     0.93500
Mg2785     Mg  0.78741009  0.21351646  0.05935195     1.58000
O2786       O  0.82126464  0.18190528  0.07288511    -0.80100
O2787       O  0.75174886  0.24426187  0.04543281    -0.74300
O2788       O  0.73585615  0.23746722  0.43316043    -0.80200
O2789       O  0.85802371  0.32992399  0.44504265    -0.81900
O2790       O  0.87385781  0.26856631  0.07733637    -0.80200
C2791       C  0.74228215  0.25221337  0.02137164     0.88000
O2792       O  0.81678839  0.24690953  0.05664629    -0.87400
O2793       O  0.79750886  0.20344849  0.01662573    -0.87500
O2794       O  0.84407732  0.20095152  0.01403606    -0.74500
Mg2795     Mg  0.75047887  0.27277426  0.46386677     1.58000
O2796       O  0.72890786  0.19717407  0.45586200    -0.81900
H2797       H  0.79070158  0.33725116  0.01369664    -0.05600
O2798       O  0.85610086  0.26573325  0.01110968    -0.87200
H2799       H  0.88564199  0.24425573  0.48937834    -0.05400
H2800       H  0.79547877  0.26830659  0.08650292    -0.05600
C2801       C  0.86755551  0.25837143  0.48853683     0.87900
C2802       C  0.78953953  0.31872166  0.00023400     0.88500
C2803       C  0.80913845  0.26934898  0.06808517     0.88600
H2804       H  0.81754372  0.17377923  0.99374601    -0.05600
O2805       O  0.79307385  0.21528316  0.45230946    -0.74600
Mg2806     Mg  0.85917265  0.23573111  0.04453921     1.58000
H2807       H  0.81490024  0.23972667  0.42426942    -0.05600
C2808       C  0.87926825  0.33068510  0.46181867     0.93500
O2809       O  0.87964507  0.31085938  0.05707434    -0.81900
C2810       C  0.88111923  0.29454912  0.07863693     0.93600
O2811       O  0.74693220  0.30510694  0.42851733    -0.81800
Mg2812     Mg  0.76294362  0.20150555  0.98858316     1.58200
O2813       O  0.87676893  0.32333851  0.98782308    -0.80200
O2814       O  0.75451971  0.17891578  0.06318094    -0.81900
N2815       N  0.72814310  0.19635465  0.40614409    -0.02600
C2816       C  0.74873966  0.20196598  0.38661131     0.00000
C2817       C  0.75566110  0.17813862  0.37128378    -0.22900
C2818       C  0.73833906  0.15692868  0.38079757    -0.23100
C2819       C  0.72087106  0.16841401  0.40160131    -0.00100
H2820       H  0.77080336  0.17674340  0.35405697     0.13700
H2821       H  0.73754626  0.13568928  0.37210947     0.13700
N2822       N  0.85914732  0.15120188  0.08094233    -0.02600
C2823       C  0.85201929  0.13098145  0.06160680     0.00000
C2824       C  0.87289087  0.11084024  0.05915398    -0.22900
C2825       C  0.89370140  0.11831715  0.07781770    -0.23100
C2826       C  0.88487633  0.14291144  0.09171256    -0.00100
H2827       H  0.87272078  0.09227208  0.04562943     0.13700
H2828       H  0.91307577  0.10637988  0.08060504     0.13700
N2829       N  0.90764955  0.33607600  0.45125814    -0.02600
C2830       C  0.93065394  0.32157864  0.46089843     0.00000
C2831       C  0.95532996  0.33080214  0.44853369    -0.22900
C2832       C  0.94770910  0.35144082  0.42990292    -0.23100
C2833       C  0.91822549  0.35380653  0.43073313    -0.00100
H2834       H  0.97666218  0.32332330  0.45267425     0.13700
H2835       H  0.96260577  0.36328861  0.41707379     0.13700
O2836       O  0.52480066  0.20392319  0.06095581    -0.87500
C2837       C  0.55948782  0.28257777  0.06484662     0.88600
Mg2838     Mg  0.50753993  0.19103165  0.02115165     1.58100
O2839       O  0.49664125  0.27358925  0.10290950    -0.87200
O2840       O  0.51643510  0.21098047  0.10637692    -0.74500
C2841       C  0.93118425  0.29897468  0.48211878     0.93600
O2842       O  0.55766752  0.24050627  0.01307795    -0.74300
O2843       O  0.93524797  0.27358383  0.47402710    -0.81800
Mg2844     Mg  0.56616027  0.22109478  0.05741052     1.58000
C2845       C  0.93290560  0.32890649  0.09628316     0.93500
O2846       O  0.57435685  0.19917479  0.10078416    -0.80100
H2847       H  0.97205794  0.25330028  0.13113437    -0.05400
C2848       C  0.49424562  0.30891852  0.02452751     0.88500
O2849       O  0.96256998  0.20075839  0.03994871    -0.74600
O2850       O  0.55014628  0.25983674  0.07422726    -0.87400
O2851       O  0.95691766  0.32396720  0.10760817    -0.80200
C2852       C  0.54780837  0.32429147  0.12752484     0.93700
C2853       C  0.57917948  0.20993864  0.12498753     0.93500
Mg2854     Mg  0.94236981  0.28554871  0.05075183     1.58000
O2855       O  0.93359565  0.30620803  0.00792756    -0.80100
O2856       O  0.95122855  0.26574242  0.09535083    -0.74300
O2857       O  0.55652188  0.29892155  0.12482587    -0.80200
O2858       O  0.58260835  0.18193075  0.03708418    -0.81900
O2859       O  0.95158829  0.20706115  0.48176914    -0.80200
C2860       C  0.97347566  0.26374588  0.11074747     0.88000
O2861       O  0.95558625  0.24632408  0.03234877    -0.87400
O2862       O  0.98416395  0.29961910  0.04699729    -0.87500
O2863       O  0.49332278  0.29462677  0.50158120    -0.74500
Mg2864     Mg  0.53607704  0.25557113  0.11597988     1.58000
O2865       O  0.52181994  0.33066461  0.12505576    -0.81900
H2866       H  0.50412288  0.17548863  0.08495826    -0.05600
O2867       O  0.51204909  0.23289302  0.50731021    -0.87200
H2868       H  0.53580627  0.25214731  0.47772776    -0.05400
H2869       H  0.92671865  0.22186486  0.05186470    -0.05600
C2870       C  0.53500826  0.24222118  0.49839162     0.87900
C2871       C  0.51463735  0.19586532  0.08390847     0.88500
C2872       C  0.94735212  0.22315745  0.04183038     0.88600
H2873       H  0.50430307  0.32954071  0.02445580    -0.05600
O2874       O  0.54518299  0.30548700  0.06652807    -0.74600
Mg2875     Mg  0.97363133  0.25079245  0.49122348     1.58000
H2876       H  0.58020330  0.28297694  0.05494001    -0.05600
C2877       C  0.57685610  0.17843928  0.51110265     0.93500
O2878       O  0.98885708  0.17975157  0.47831504    -0.81900
C2879       C  0.96220123  0.18256438  0.47750649     0.93600
O2880       O  0.57867413  0.23655646  0.12758828    -0.81800
Mg2881     Mg  0.50087251  0.31495622  0.08593078     1.58200
O2882       O  0.55172309  0.18145460  0.50160837    -0.80200
O2883       O  0.93086369  0.32812792  0.06964315    -0.81900
N2884       N  0.90726888  0.32700997  0.11288729    -0.02600
C2885       C  0.88762140  0.30671644  0.10690084     0.00000
C2886       C  0.87121851  0.30086192  0.13032947    -0.22900
C2887       C  0.88037827  0.31858156  0.15145035    -0.23100
C2888       C  0.90215625  0.33517782  0.14035257    -0.00100
H2889       H  0.85350445  0.28627239  0.13149597     0.13700
H2890       H  0.87114743  0.31979421  0.17244329     0.13700
N2891       N  0.57695824  0.19262925  0.15006507    -0.02600
C2892       C  0.55693846  0.19888963  0.16993502     0.00000
C2893       C  0.54828797  0.17473393  0.18387659    -0.22900
C2894       C  0.56404583  0.15284052  0.17305364    -0.23100
C2895       C  0.58224196  0.16409370  0.15266561    -0.00100
H2896       H  0.53274280  0.17329053  0.20075647     0.13700
H2897       H  0.56280029  0.13118255  0.18042456     0.13700
N2898       N  0.94470474  0.15754800  0.48047491    -0.02600
C2899       C  0.95023541  0.13836007  0.50139804     0.00000
C2900       C  0.92609894  0.12347784  0.50839065    -0.22900
C2901       C  0.90495857  0.13306824  0.49092103    -0.23100
C2902       C  0.91667319  0.15357342  0.47324941    -0.00100
H2903       H  0.92443875  0.10634426  0.52357420     0.13700
H2904       H  0.88355814  0.12472817  0.49044638     0.13700
O2905       O  0.80420803  0.06459654  0.99606518    -0.87500
C2906       C  0.73649027  0.11625995  0.00613277     0.88600
Mg2907     Mg  0.80747797  0.03570753  0.46189707     1.58100
O2908       O  0.74039835  0.06017631  0.05395599    -0.87200
O2909       O  0.80540645  0.06447088  0.04275359    -0.74500
C2910       C  0.67916945  0.47951965  0.45745977     0.93600
O2911       O  0.76429076  0.09345868  0.44918658    -0.74300
O2912       O  0.70112229  0.47946069  0.44173116    -0.81800
Mg2913     Mg  0.79370228  0.10737654  0.98560056     1.58000
C2914       C  0.67772350  0.01003113  0.07479442     0.93500
O2915       O  0.82519739  0.12008783  0.02071397    -0.80100
H2916       H  0.76184370  0.03855732  0.08356233    -0.05400
C2917       C  0.69025886  0.05037285  0.48612385     0.88500
O2918       O  0.79252539  0.49959093  0.99118264    -0.74600
O2919       O  0.75876570  0.10451004  0.01393273    -0.87400
O2920       O  0.68505357  0.03605274  0.07491626    -0.80200
C2921       C  0.70777930  0.12672350  0.07736366     0.93700
C2922       C  0.82475868  0.12801693  0.04654421     0.93500
Mg2923     Mg  0.71168767  0.49946628  0.01885296     1.58000
O2924       O  0.68090930  0.48604399  0.98365279    -0.80100
O2925       O  0.74131782  0.51347888  0.05516221    -0.74300
O2926       O  0.73391262  0.12490130  0.07052157    -0.80200
O2927       O  0.82828774  0.11237187  0.45252716    -0.81900
O2928       O  0.76955689  0.48078769  0.43375958    -0.80200
C2929       C  0.74817071  0.03764948  0.06516331     0.88000
O2930       O  0.74587849  0.50193173  0.99012021    -0.87400
O2931       O  0.70131860  0.04224831  0.00861195    -0.87500
O2932       O  0.69997610  0.04331785  0.46188350    -0.74500
Mg2933     Mg  0.76903434  0.09424145  0.05669739     1.58000
O2934       O  0.69182976  0.10494417  0.07695464    -0.81900
H2935       H  0.83361895  0.04321119  0.01801625    -0.05600
O2936       O  0.76493133  0.04672713  0.45070601    -0.87200
H2937       H  0.74353645  0.06830721  0.42105111    -0.05400
H2938       H  0.76667633  0.47159380  0.01132683    -0.05600
C2939       C  0.75731421  0.06925379  0.43936407     0.87900
C2940       C  0.81531829  0.05704162  0.01870182     0.88500
C2941       C  0.76809170  0.49008504  0.99783496     0.88600
H2942       H  0.67225863  0.06458798  0.48713565    -0.05600
O2943       O  0.71205656  0.10697708  0.01321031    -0.74600
Mg2944     Mg  0.73550999  0.01293728  0.44742601     1.58000
H2945       H  0.73783890  0.13452168  0.99230658    -0.05600
C2946       C  0.82921159  0.09710381  0.43030627     0.93500
O2947       O  0.81146744  0.50186212  0.42754150    -0.81900
C2948       C  0.79561257  0.47995223  0.42647957     0.93600
O2949       O  0.80175211  0.12922355  0.06061379    -0.81800
Mg2950     Mg  0.69771706  0.07089890  0.04306230     1.58200
O2951       O  0.82254783  0.07085054  0.43125960    -0.80200
O2952       O  0.67695495  0.49561130  0.05198364    -0.81900
N2953       N  0.83110669  0.11065569  0.40286419    -0.02600
C2954       C  0.81089915  0.10510896  0.38281881     0.00000
C2955       C  0.80811794  0.12727238  0.36421353    -0.22900
C2956       C  0.82727031  0.14734714  0.37243203    -0.23100
C2957       C  0.84198465  0.13687222  0.39586850    -0.00100
H2958       H  0.79409929  0.12840003  0.34605126     0.13700
H2959       H  0.82975632  0.16755780  0.36190519     0.13700
N2960       N  0.69567981  0.15466745  0.08087462    -0.02600
C2961       C  0.70453108  0.17734982  0.06522387     0.00000
C2962       C  0.68652646  0.20000900  0.06836983    -0.22900
C2963       C  0.66567553  0.19145150  0.08654791    -0.23100
C2964       C  0.67097767  0.16325297  0.09373475    -0.00100
H2965       H  0.68899945  0.22099588  0.05935681     0.13700
H2966       H  0.64899745  0.20521267  0.09424158     0.13700
N2967       N  0.65128466  0.47752160  0.44486431    -0.02600
C2968       C  0.62967030  0.49494120  0.45294044     0.00000
C2969       C  0.60808892  0.49481828  0.43336986    -0.22900
C2970       C  0.61620512  0.47658345  0.41237796    -0.23100
C2971       C  0.64302146  0.46622719  0.41935497    -0.00100
H2972       H  0.58797001  0.50585288  0.43485599     0.13700
H2973       H  0.60291707  0.47082695  0.39459388     0.13700
O2974       O  0.81112358  0.25194086  0.31645574    -0.87500
C2975       C  0.79967339  0.31926137  0.36721390     0.88600
Mg2976     Mg  0.84531890  0.24947263  0.28772581     1.58100
O2977       O  0.75278431  0.31459550  0.31051035    -0.87200
O2978       O  0.76447665  0.24959259  0.31539128    -0.74500
C2979       C  0.84921495  0.37672152  0.22921081     0.93600
O2980       O  0.85701393  0.29333731  0.34469690    -0.74300
O2981       O  0.86516648  0.35494424  0.22962024    -0.81800
Mg2982     Mg  0.82148363  0.26295081  0.35915136     1.58000
C2983       C  0.73224054  0.37800837  0.26002660     0.93500
O2984       O  0.78743836  0.23079354  0.37281426    -0.80100
H2985       H  0.72337761  0.29320501  0.28855733    -0.05400
C2986       C  0.82050176  0.36626338  0.30044246     0.88500
O2987       O  0.81569218  0.26347603  0.25141250    -0.74600
O2988       O  0.79205886  0.29673432  0.35586990    -0.87400
O2989       O  0.73179781  0.37008444  0.28585819    -0.80200
C2990       C  0.72777991  0.34709724  0.37627195     0.93700
C2991       C  0.76138207  0.22995564  0.38009300     0.93500
Mg2992     Mg  0.78796459  0.34423361  0.24987810     1.58000
O2993       O  0.82308201  0.37489657  0.23605288    -0.80100
O2994       O  0.75159361  0.31446125  0.26382160    -0.74300
O2995       O  0.73444231  0.32084441  0.37531504    -0.80200
O2996       O  0.85587664  0.22948448  0.36484959    -0.81900
O2997       O  0.87195783  0.28605648  0.23166542    -0.80200
C2998       C  0.74167773  0.30703634  0.28787285     0.88000
O2999       O  0.81660443  0.31017276  0.25262318    -0.87400
O3000       O  0.79822772  0.35450998  0.29264275    -0.87500
O3001       O  0.84493659  0.35698326  0.29336562    -0.74500
Mg3002     Mg  0.74951571  0.28570673  0.34467687     1.58000
O3003       O  0.72870666  0.36236902  0.35405364    -0.81900
H3004       H  0.79033046  0.22159995  0.29524696    -0.05600
O3005       O  0.85568599  0.29225680  0.29796760    -0.87200
H3006       H  0.88473593  0.31460640  0.31944915    -0.05400
H3007       H  0.79516809  0.28855192  0.22301045    -0.05600
C3008       C  0.86673764  0.30038806  0.32045797     0.87900
C3009       C  0.78891207  0.24009086  0.30873944     0.88500
C3010       C  0.80883758  0.28764552  0.24141205     0.88600
H3011       H  0.81915094  0.38452635  0.31426791    -0.05600
O3012       O  0.79269915  0.34346557  0.35739019    -0.74600
Mg3013     Mg  0.85928405  0.32090399  0.26351630     1.58000
H3014       H  0.81344816  0.31831571  0.38552936    -0.05600
C3015       C  0.87783057  0.22953814  0.34912235     0.93500
O3016       O  0.88005437  0.24561358  0.25459404    -0.81900
C3017       C  0.87929043  0.26003554  0.23178470     0.93600
O3018       O  0.74552667  0.25186435  0.37903267    -0.81800
Mg3019     Mg  0.76329005  0.35737691  0.32097491     1.58200
O3020       O  0.87609449  0.23605742  0.32292823    -0.80200
O3021       O  0.75524805  0.37921218  0.24595875    -0.81900
N3022       N  0.86131295  0.40466657  0.22570393    -0.02600
C3023       C  0.85246511  0.42734402  0.24136410     0.00000
C3024       C  0.87047837  0.44999901  0.23823555    -0.22900
C3025       C  0.89132954  0.44144520  0.22005617    -0.23100
C3026       C  0.88601907  0.41325232  0.21285163    -0.00100
H3027       H  0.86801108  0.47098149  0.24726089     0.13700
H3028       H  0.90801329  0.45520587  0.21237389     0.13700
N3029       N  0.72588138  0.36064381  0.40371658    -0.02600
C3030       C  0.74608721  0.35509854  0.42376426     0.00000
C3031       C  0.74885845  0.37725811  0.44237641    -0.22900
C3032       C  0.72970198  0.39732841  0.43416006    -0.23100
C3033       C  0.71499514  0.38685481  0.41071741    -0.00100
H3034       H  0.76287380  0.37838642  0.46054132     0.13700
H3035       H  0.72720990  0.41753602  0.44469163     0.13700
N3036       N  0.90571330  0.22753644  0.36172041    -0.02600
C3037       C  0.92733134  0.24495229  0.35364518     0.00000
C3038       C  0.94890539  0.24483739  0.37322341    -0.22900
C3039       C  0.94078157  0.22661009  0.39421829    -0.23100
C3040       C  0.91396770  0.21624893  0.38723510    -0.00100
H3041       H  0.96902468  0.25587228  0.37174095     0.13700
H3042       H  0.95406528  0.22086132  0.41200785     0.13700
O3043       O  0.74021044  0.99690704  0.24993709    -0.87500
C3044       C  0.68944240  0.00836317  0.31804360     0.88600
Mg3045     Mg  0.76958584  0.46351118  0.24723263     1.58100
O3046       O  0.74509499  0.05683765  0.31365258    -0.87200
O3047       O  0.74119072  0.04356888  0.24843310    -0.74500
C3048       C  0.82807767  0.46129979  0.37358548     0.93600
O3049       O  0.71291741  0.45095156  0.29254359    -0.74300
O3050       O  0.82810135  0.44718522  0.35071138    -0.81800
Mg3051     Mg  0.69782337  0.98572907  0.26203741     1.58000
C3052       C  0.79575398  0.07800123  0.37801944     0.93500
O3053       O  0.68314324  0.01856674  0.22923811    -0.80100
H3054       H  0.76628643  0.08725417  0.29289550    -0.05400
C3055       C  0.75627208  0.48926542  0.36424948     0.88500
O3056       O  0.80525048  0.99425706  0.26114742    -0.74600
O3057       O  0.70089241  0.01573051  0.29547008    -0.87400
O3058       O  0.76975239  0.07859822  0.37011224    -0.80200
C3059       C  0.67772371  0.08067599  0.34476786     0.93700
C3060       C  0.67588396  0.04455024  0.22793708     0.93500
Mg3061     Mg  0.80652176  0.02277948  0.34271227     1.58000
O3062       O  0.82115054  0.98747473  0.37341911    -0.80100
O3063       O  0.79178011  0.05932416  0.31359409    -0.74300
O3064       O  0.68022650  0.07333457  0.31876189    -0.80200
O3065       O  0.69274070  0.45054859  0.22971313    -0.81900
O3066       O  0.82628577  0.43887645  0.28280995    -0.80200
C3067       C  0.76745187  0.06872315  0.30635471     0.88000
O3068       O  0.80367846  0.99444854  0.30782711    -0.87400
O3069       O  0.76386005  0.01208467  0.35344638    -0.87500
O3070       O  0.76393314  0.46528414  0.35427841    -0.74500
Mg3071     Mg  0.71130467  0.05826251  0.28407482     1.58000
O3072       O  0.69896433  0.07990756  0.36154869    -0.81900
H3073       H  0.76153154  0.01830743  0.22009143    -0.05600
O3074       O  0.75948678  0.45344833  0.28996061    -0.87200
H3075       H  0.73944760  0.42378374  0.31284239    -0.05400
H3076       H  0.83260012  0.01658251  0.28590429    -0.05600
C3077       C  0.73755606  0.44173781  0.29868456     0.87900
C3078       C  0.74786599  0.01934797  0.23850491     0.88500
C3079       C  0.81471751  0.00221201  0.28520772     0.88600
H3080       H  0.74211030  0.48972828  0.38232065    -0.05600
O3081       O  0.69885297  0.01604969  0.34220661    -0.74600
Mg3082     Mg  0.79405667  0.45150809  0.31800011     1.58000
H3083       H  0.67135740  0.99424500  0.31720189    -0.05600
C3084       C  0.70943867  0.42938489  0.22807522     0.93500
O3085       O  0.80247507  0.42890822  0.24340359    -0.81900
C3086       C  0.82558876  0.43037324  0.25712278     0.93600
O3087       O  0.67735842  0.06086091  0.24950063    -0.81800
Mg3088     Mg  0.73447397  0.04640806  0.35653784     1.58200
O3089       O  0.73572743  0.43189957  0.23370242    -0.80200
O3090       O  0.81006836  0.05511767  0.37805724    -0.81900
N3091       N  0.69784845  0.40119209  0.22563473    -0.02600
C3092       C  0.70498404  0.38096381  0.24495794     0.00000
C3093       C  0.68413183  0.36079942  0.24738158    -0.22900
C3094       C  0.66332469  0.36827026  0.22871293    -0.23100
C3095       C  0.67213127  0.39288660  0.21484486    -0.00100
H3096       H  0.68431394  0.34221901  0.26088865     0.13700
H3097       H  0.64396630  0.35631162  0.22590586     0.13700
N3098       N  0.64934193  0.08607492  0.35532218    -0.02600
C3099       C  0.62633432  0.07158993  0.34567140     0.00000
C3100       C  0.60165712  0.08083043  0.35802205    -0.22900
C3101       C  0.60928155  0.10146586  0.37665695    -0.23100
C3102       C  0.63876672  0.10381310  0.37584052    -0.00100
H3103       H  0.58032244  0.07336367  0.35387120     0.13700
H3104       H  0.59438803  0.11332371  0.38948042     0.13700
N3105       N  0.82885694  0.44635689  0.40042873    -0.02600
C3106       C  0.80825357  0.45196339  0.41995552     0.00000
C3107       C  0.80132199  0.42813096  0.43527055    -0.22900
C3108       C  0.81864643  0.40692299  0.42575700    -0.23100
C3109       C  0.83612383  0.41841408  0.40496508    -0.00100
H3110       H  0.78617234  0.42673117  0.45249014     0.13700
H3111       H  0.81943540  0.38568088  0.43443835     0.13700
C3112       C  0.65184786  0.14904819  0.44082600     0.04000
C3113       C  0.67916707  0.15973452  0.43507446    -0.12100
C3114       C  0.69342265  0.15401504  0.40959580     0.01500
C3115       C  0.68023447  0.13523937  0.39014530    -0.10700
C3116       C  0.65424163  0.12210298  0.39655332     0.04000
C3117       C  0.64039882  0.12922522  0.42222419    -0.10100
H3118       H  0.68843349  0.17335178  0.45043711     0.09600
H3119       H  0.68928642  0.13209719  0.36933426     0.07100
H3120       H  0.61976857  0.12068464  0.42705640     0.07000
C3121       C  0.90275294  0.37210362  0.91002383     0.04000
C3122       C  0.87676045  0.38524253  0.91643081    -0.12100
C3123       C  0.86357402  0.40401623  0.89697760     0.01500
C3124       C  0.87782978  0.40973196  0.87149902    -0.10700
C3125       C  0.90514945  0.39904783  0.86575066     0.04000
C3126       C  0.91659671  0.37922583  0.88435301    -0.10100
H3127       H  0.86770543  0.38210236  0.93724071     0.09600
H3128       H  0.86856200  0.42334261  0.85613260     0.07100
H3129       H  0.93722516  0.37068414  0.87951835     0.07000
C3130       C  0.65664619  0.40477713  0.68950547     0.04000
C3131       C  0.66519994  0.42965776  0.67539436    -0.12100
C3132       C  0.65044450  0.44051340  0.65155636     0.01500
C3133       C  0.62729799  0.42475049  0.64152307    -0.10700
C3134       C  0.61943249  0.39856285  0.65376774     0.04000
C3135       C  0.63433064  0.38895421  0.67741876    -0.10100
H3136       H  0.68453199  0.43945005  0.68174584     0.09600
H3137       H  0.61637311  0.43177539  0.62299270     0.07100
H3138       H  0.62991484  0.36789242  0.68481659     0.07000
C3139       C  0.91264132  0.36136296  0.65544111     0.04000
C3140       C  0.93857004  0.37458829  0.64880476    -0.12100
C3141       C  0.94859155  0.39844596  0.66398474     0.01500
C3142       C  0.93210079  0.40819738  0.68669573    -0.10700
C3143       C  0.90476377  0.39737395  0.69242502     0.04000
C3144       C  0.89520530  0.37422503  0.67632599    -0.10100
H3145       H  0.95053456  0.36708404  0.63115013     0.09600
H3146       H  0.94000342  0.42500224  0.69959054     0.07100
H3147       H  0.87361008  0.36712212  0.67898406     0.07000
C3148       C  0.60839948  0.14844052  0.64259091     0.04000
C3149       C  0.61841544  0.12457486  0.65776231    -0.12100
C3150       C  0.64434459  0.11134969  0.65112619     0.01500
C3151       C  0.66178264  0.12421465  0.63024505    -0.10700
C3152       C  0.65222816  0.14736845  0.61415198     0.04000
C3153       C  0.62489246  0.15819423  0.61988275    -0.10100
H3154       H  0.60644846  0.11706478  0.67541216     0.09600
H3155       H  0.68337794  0.11711185  0.62758788     0.07100
H3156       H  0.61699525  0.17500489  0.60699431     0.07000
C3157       C  0.93757095  0.14856115  0.65279453     0.04000
C3158       C  0.92971792  0.17475414  0.66503958    -0.12100
C3159       C  0.90657546  0.19052440  0.65501124     0.01500
C3160       C  0.89181283  0.17967531  0.63117238    -0.10700
C3161       C  0.90035942  0.15479093  0.61705917     0.04000
C3162       C  0.92266536  0.13895711  0.62914548    -0.10100
H3163       H  0.94065038  0.18177706  0.68356644     0.09600
H3164       H  0.87249624  0.18946854  0.62482687     0.07100
H3165       H  0.92706790  0.11789132  0.62174827     0.07000
C3166       C  0.89967150  0.19345843  0.90436492     0.04000
C3167       C  0.90970162  0.18742407  0.93183516    -0.12100
C3168       C  0.90206602  0.16259548  0.94620588     0.01500
C3169       C  0.88074794  0.14516279  0.93387748    -0.10700
C3170       C  0.86715478  0.15267538  0.90830283     0.04000
C3171       C  0.87884921  0.17567222  0.89283655    -0.10100
H3172       H  0.92418293  0.20185785  0.94153224     0.09600
H3173       H  0.87579583  0.12520850  0.94360294     0.07100
H3174       H  0.87286386  0.17896595  0.87109122     0.07000
C3175       C  0.65492945  0.41259125  0.86036845     0.04000
C3176       C  0.67624270  0.39515299  0.87269601    -0.12100
C3177       C  0.68982674  0.40265589  0.89827993     0.01500
C3178       C  0.67812763  0.42564625  0.91375176    -0.10700
C3179       C  0.65731511  0.44343927  0.90222181     0.04000
C3180       C  0.64729247  0.43741617  0.87474628    -0.10100
H3181       H  0.68119754  0.37520344  0.86296150     0.09600
H3182       H  0.68410350  0.42893285  0.93550094     0.07100
H3183       H  0.63281850  0.45185550  0.86505198     0.07000
O3184       O  0.99998537  0.06502345  0.56148935    -0.87500
C3185       C  0.56817694  0.11585852  0.55049649     0.88600
Mg3186     Mg  0.99782197  0.03468103  0.59458460     1.58100
O3187       O  0.56330984  0.06040223  0.00197710    -0.87200
O3188       O  0.99818527  0.06521931  0.01479089    -0.74500
C3189       C  0.62626875  0.47818559  0.59700866     0.93600
O3190       O  0.54180817  0.09204416  0.60776685    -0.74300
O3191       O  0.60462481  0.47912877  0.61306496    -0.81800
Mg3192     Mg  0.01154502  0.10751214  0.57288156     1.58000
C3193       C  0.62663700  0.50998901  0.98017628     0.93500
O3194       O  0.97932500  0.12300581  0.53945390    -0.80100
H3195       H  0.54138404  0.03874168  0.97274365    -0.05400
C3196       C  0.61469408  0.04991202  0.56889193     0.88500
O3197       O  0.01254758  0.49961561  0.56401077    -0.74600
O3198       O  0.54548292  0.10467446  0.54305111    -0.87400
O3199       O  0.61877431  0.03587036  0.97987134    -0.80200
C3200       C  0.59625368  0.12700399  0.97828407     0.93700
C3201       C  0.97839998  0.13088488  0.01358510     0.93500
Mg3202     Mg  0.59315969  0.49901819  0.53615703     1.58000
O3203       O  0.62433978  0.48460125  0.57078517    -0.80100
O3204       O  0.56295206  0.51366587  0.00038592    -0.74300
O3205       O  0.57009639  0.12562138  0.98568313    -0.80200
O3206       O  0.97828668  0.11239986  0.60794264    -0.81900
O3207       O  0.53725063  0.47929269  0.62218330    -0.80200
C3208       C  0.55549111  0.03785685  0.99081282     0.88000
O3209       O  0.55927848  0.50103674  0.56524946    -0.87400
O3210       O  0.60344030  0.04180219  0.54651004    -0.87500
O3211       O  0.60527192  0.04271440  0.59318821    -0.74500
Mg3212     Mg  0.53437223  0.09477281  0.00026600     1.58000
O3213       O  0.61170645  0.10486464  0.97794983    -0.81900
H3214       H  0.96988308  0.04440852  0.53977165    -0.05600
O3215       O  0.54055162  0.04538640  0.60533223    -0.87200
H3216       H  0.56310640  0.06609618  0.63469976    -0.05400
H3217       H  0.53793627  0.47172497  0.54317676    -0.05600
C3218       C  0.54871108  0.06758317  0.61689880     0.87900
C3219       C  0.98840228  0.05793423  0.53893519     0.88500
C3220       C  0.53683515  0.48981928  0.55722920     0.88600
H3221       H  0.63256288  0.06428390  0.56774484    -0.05600
O3222       O  0.59230535  0.10649587  0.54246651    -0.74600
Mg3223     Mg  0.57020394  0.51198529  0.60789389     1.58000
H3224       H  0.56747400  0.13371941  0.56486950    -0.05600
C3225       C  0.97677924  0.09552360  0.62898088     0.93500
O3226       O  0.99445238  0.49868860  0.62745609    -0.81900
C3227       C  0.01123518  0.47744164  0.62924118     0.93600
O3228       O  0.00015266  0.12926899  0.99746466    -0.81800
Mg3229     Mg  0.60630256  0.07071144  0.01204077     1.58200
O3230       O  0.98306628  0.06920421  0.62635969    -0.80200
O3231       O  0.62782074  0.49576672  0.00305558    -0.81900
N3232       N  0.60908220  0.15478645  0.97522156    -0.02600
C3233       C  0.60064142  0.17726863  0.99119744     0.00000
C3234       C  0.61892878  0.19977601  0.98881328    -0.22900
C3235       C  0.63977276  0.19138942  0.97072272    -0.23100
C3236       C  0.63406585  0.16348219  0.96285572    -0.00100
H3237       H  0.61725923  0.22017905  0.99923546     0.13700
H3238       H  0.65685110  0.20497840  0.96359123     0.13700
N3239       N  0.97269944  0.10662396  0.65732799    -0.02600
C3240       C  0.98836468  0.09717674  0.67949267     0.00000
C3241       C  0.98401364  0.11307281  0.70345415    -0.22900
C3242       C  0.96497946  0.13354508  0.69620556    -0.23100
C3243       C  0.95857276  0.12996356  0.66758179    -0.00100
H3244       H  0.99379240  0.11016233  0.72402558     0.13700
H3245       H  0.95659539  0.14898479  0.71093636     0.13700
N3246       N  0.65420108  0.47602944  0.60948252    -0.02600
C3247       C  0.67446530  0.49535000  0.60229235     0.00000
C3248       C  0.69394245  0.49872531  0.62363465    -0.22900
C3249       C  0.68604776  0.48069282  0.64486787    -0.23100
C3250       C  0.66180204  0.46622994  0.63592908    -0.00100
H3251       H  0.71240021  0.51243370  0.62350924     0.13700
H3252       H  0.69771037  0.47853168  0.66444466     0.13700
O3253       O  0.49369958  0.31041155  0.80459996    -0.87500
C3254       C  0.94231173  0.29991069  0.73768928     0.88600
Mg3255     Mg  0.52263383  0.34478574  0.80630467     1.58100
O3256       O  0.49773383  0.25104718  0.74132739    -0.87200
O3257       O  0.49406544  0.26367521  0.80619032    -0.74500
C3258       C  0.58020791  0.34554231  0.67758062     0.93600
O3259       O  0.96469108  0.35649920  0.76411275    -0.74300
O3260       O  0.57869070  0.36242316  0.69861493    -0.81800
Mg3261     Mg  0.95070399  0.32071358  0.79453878     1.58000
C3262       C  0.54577292  0.22745407  0.67733764     0.93500
O3263       O  0.93823502  0.28587411  0.82670818    -0.80100
H3264       H  0.51908471  0.22174259  0.76339904    -0.05400
C3265       C  0.50827746  0.31759173  0.68967303     0.88500
O3266       O  0.55882117  0.31523909  0.79177083    -0.74600
O3267       O  0.95356924  0.29180382  0.76007001    -0.87400
O3268       O  0.51975812  0.22930243  0.68439695    -0.80200
C3269       C  0.93074660  0.22818260  0.70957504     0.93700
C3270       C  0.93037382  0.25999219  0.82640636     0.93500
Mg3271     Mg  0.55917899  0.28470082  0.71198138     1.58000
O3272       O  0.57392802  0.31922163  0.68020456    -0.80100
O3273       O  0.54446480  0.24963618  0.74255941    -0.74300
O3274       O  0.93267261  0.23460109  0.73579825    -0.80200
O3275       O  0.94529764  0.35486655  0.82862941    -0.81900
O3276       O  0.57767177  0.37302813  0.76710236    -0.80200
C3277       C  0.52018030  0.23983536  0.74934536     0.88000
O3278       O  0.55701231  0.31504502  0.74507292    -0.87400
O3279       O  0.51644633  0.29539720  0.70123639    -0.87500
O3280       O  0.51517366  0.34205491  0.69880584    -0.74500
Mg3281     Mg  0.96385543  0.24902193  0.77042310     1.58000
O3282       O  0.95239267  0.22912216  0.69352194    -0.81900
H3283       H  0.51563360  0.28875580  0.83382919    -0.05600
O3284       O  0.51151344  0.35468670  0.76352218    -0.87200
H3285       H  0.98951483  0.38372683  0.74170758    -0.05400
H3286       H  0.58712279  0.29443584  0.76678294    -0.05600
C3287       C  0.98881670  0.36586658  0.75608026     0.87900
C3288       C  0.50152385  0.28786786  0.81576266     0.88500
C3289       C  0.56860114  0.30795778  0.76762415     0.88600
H3290       H  0.49387892  0.31610043  0.67187509    -0.05600
O3291       O  0.95173087  0.29271210  0.71339187    -0.74600
Mg3292     Mg  0.54544308  0.35753026  0.73368360     1.58000
H3293       H  0.92444195  0.31428032  0.73883834    -0.05600
C3294       C  0.96074936  0.37700698  0.82829748     0.93500
O3295       O  0.55685286  0.37928449  0.80909714    -0.81900
C3296       C  0.57860223  0.38090408  0.79297221     0.93600
O3297       O  0.92919744  0.24576392  0.80352964    -0.81800
Mg3298     Mg  0.48680196  0.26198890  0.69868401     1.58200
O3299       O  0.48690685  0.37562713  0.82089763    -0.80200
O3300       O  0.56255233  0.24870478  0.67911499    -0.81900
N3301       N  0.90281667  0.22603175  0.69709587    -0.02600
C3302       C  0.88255694  0.24535889  0.70428325     0.00000
C3303       C  0.86309564  0.24875233  0.68292985    -0.22900
C3304       C  0.87099439  0.23072531  0.66169211    -0.23100
C3305       C  0.89522604  0.21624589  0.67064050    -0.00100
H3306       H  0.84464500  0.26247041  0.68304911     0.13700
H3307       H  0.85934652  0.22858011  0.64210978     0.13700
N3308       N  0.58429237  0.35663767  0.64923334    -0.02600
C3309       C  0.56862666  0.34719018  0.62706976     0.00000
C3310       C  0.57297983  0.36308345  0.60310716    -0.22900
C3311       C  0.59201804  0.38355377  0.61035514    -0.23100
C3312       C  0.59842394  0.37997311  0.63897923    -0.00100
H3313       H  0.56320171  0.36017137  0.58253558     0.13700
H3314       H  0.60040594  0.39899060  0.59562368     0.13700
N3315       N  0.94791851  0.40478814  0.83136000    -0.02600
C3316       C  0.95635708  0.42726884  0.81538188     0.00000
C3317       C  0.93806589  0.44977325  0.81776029    -0.22900
C3318       C  0.91722142  0.44138625  0.83584988    -0.23100
C3319       C  0.92293200  0.41348141  0.84372153    -0.00100
H3320       H  0.93973289  0.47017432  0.80733439     0.13700
H3321       H  0.90013979  0.45497322  0.84297688     0.13700
O3322       O  0.60141064  0.99631791  0.77423267    -0.87500
C3323       C  0.52199124  0.99221446  0.80819100     0.88600
Mg3324     Mg  0.61462567  0.03554013  0.75582490     1.59700
O3325       O  0.53219971  0.45391378  0.74562628    -0.87200
O3326       O  0.59443039  0.45075060  0.76663663    -0.74500
C3327       C  0.00918597  0.07427991  0.67904153     0.93600
O3328       O  0.56367142  0.04462299  0.80499263    -0.74300
O3329       O  0.53517350  0.08065697  0.68151593    -0.81800
Mg3330     Mg  0.58336502  0.00079274  0.81535758     1.58000
C3331       C  0.97781976  0.45993443  0.68159211     0.93500
O3332       O  0.60540987  0.45706646  0.82481600    -0.80100
H3333       H  0.55287792  0.42547976  0.72162318    -0.05400
C3334       C  0.99751179  0.03257009  0.74172956     0.88500
O3335       O  0.60576834  0.01572742  0.71122820    -0.74600
O3336       O  0.54495036  0.48288743  0.79927189    -0.87400
O3337       O  0.98264355  0.44917113  0.70579519    -0.80200
C3338       C  0.98014303  0.42843828  0.79547800     0.93700
C3339       C  0.59479879  0.43256845  0.82907584     0.93500
Mg3340     Mg  0.52092176  0.00556090  0.69059755     1.58000
O3341       O  0.00047511  0.04890947  0.68174511    -0.80100
O3342       O  0.54056377  0.46097004  0.70020476    -0.74300
O3343       O  0.50527599  0.43145142  0.80497355    -0.80200
O3344       O  0.62174527  0.02359061  0.83255347    -0.81900
O3345       O  0.60007808  0.07395556  0.69896472    -0.80200
C3346       C  0.54236287  0.44585579  0.72267331     0.88000
O3347       O  0.56035733  0.02357929  0.70366388    -0.87400
O3348       O  0.00685667  0.00982933  0.73235196    -0.87500
O3349       O  0.51181366  0.05548094  0.74004483    -0.74500
Mg3350     Mg  0.54945996  0.44102567  0.78543225     1.58000
O3351       O  0.97439206  0.43192749  0.76949608    -0.81900
H3352       H  0.63028160  0.47185831  0.75472211    -0.05600
O3353       O  0.57283130  0.04961029  0.75957593    -0.87200
H3354       H  0.55268996  0.07953290  0.78211451    -0.05400
H3355       H  0.58494056  0.00328256  0.67544396    -0.05600
C3356       C  0.56274856  0.05891156  0.78204485     0.87900
C3357       C  0.60964718  0.47315059  0.76475433     0.88500
C3358       C  0.58352242  0.01373184  0.69582955     0.88600
H3359       H  0.97679635  0.03296759  0.75163571    -0.05600
O3360       O  0.99933270  0.99050053  0.79350359    -0.74600
Mg3361     Mg  0.55612378  0.06494724  0.72064171     1.58000
H3362       H  0.52119278  0.00213919  0.82885602    -0.05600
C3363       C  0.62580516  0.04898016  0.82445671     0.93500
O3364       O  0.62613358  0.07811623  0.73692923    -0.81900
C3365       C  0.62409035  0.07889546  0.71028932     0.93600
O3366       O  0.56814292  0.42975377  0.82827110    -0.81800
Mg3367     Mg  0.99084132  0.47108921  0.74916984     1.58200
O3368       O  0.62339504  0.05620668  0.79864638    -0.80200
O3369       O  0.97832427  0.48655154  0.67899130    -0.81900
N3370       N  0.61229629  0.40755538  0.82609299    -0.02600
C3371       C  0.60676891  0.38838187  0.80515522     0.00000
C3372       C  0.63090889  0.37350953  0.79815205    -0.22900
C3373       C  0.65204680  0.38309013  0.81563221    -0.23100
C3374       C  0.64032760  0.40358142  0.83331743    -0.00100
H3375       H  0.63257246  0.35638619  0.78295679     0.13700
H3376       H  0.67344781  0.37475236  0.81610509     0.13700
N3377       N  0.64972645  0.07700362  0.69368393    -0.02600
C3378       C  0.66937962  0.05671623  0.69967200     0.00000
C3379       C  0.68577829  0.05085867  0.67624069    -0.22900
C3380       C  0.67661054  0.06857076  0.65511735    -0.23100
C3381       C  0.65483167  0.08516558  0.66621553    -0.00100
H3382       H  0.70349327  0.03627073  0.67507275     0.13700
H3383       H  0.68583705  0.06978042  0.63412233     0.13700
N3384       N  0.98004249  0.44262502  0.65651506    -0.02600
C3385       C  0.00007262  0.44887799  0.63665327     0.00000
C3386       C  0.00872951  0.42471636  0.62272485    -0.22900
C3387       C  0.99296328  0.40282769  0.63354629    -0.23100
C3388       C  0.97475746  0.41408998  0.65392023    -0.00100
H3389       H  0.02428233  0.42326612  0.60585256     0.13700
H3390       H  0.99420762  0.38116699  0.62618287     0.13700
O3391       O  0.81189833  0.30683986  0.49293630    -0.87500
C3392       C  0.80073497  0.23926440  0.94233817     0.88600
Mg3393     Mg  0.84569255  0.30826474  0.52251070     1.58100
O3394       O  0.75332054  0.24444652  0.49875287    -0.87200
O3395       O  0.76521317  0.30932155  0.49298860    -0.74500
C3396       C  0.84755456  0.17939272  0.57850645     0.93600
O3397       O  0.85814835  0.26606231  0.96437449    -0.74300
O3398       O  0.86425289  0.20055587  0.57686186    -0.81800
Mg3399     Mg  0.82252186  0.29641537  0.95004911     1.58000
C3400       C  0.73140588  0.18037863  0.54946214     0.93500
O3401       O  0.78723859  0.32859927  0.93647576    -0.80100
H3402       H  0.72440047  0.26658456  0.52067376    -0.05400
C3403       C  0.81943789  0.19173582  0.50790113     0.88500
O3404       O  0.81581264  0.29357065  0.55815869    -0.74600
O3405       O  0.79314258  0.26208426  0.95313768    -0.87400
O3406       O  0.73070836  0.18887735  0.52377336    -0.80200
C3407       C  0.72892928  0.21129229  0.93299038     0.93700
C3408       C  0.76123946  0.32799498  0.92856112     0.93500
Mg3409     Mg  0.78741012  0.21351649  0.55935198     1.58000
O3410       O  0.82126468  0.18190531  0.57288513    -0.80100
O3411       O  0.75174891  0.24426188  0.54543284    -0.74300
O3412       O  0.73585613  0.23746723  0.93316038    -0.80200
O3413       O  0.85802370  0.32992401  0.94504264    -0.81900
O3414       O  0.87385784  0.26856632  0.57733638    -0.80200
C3415       C  0.74228220  0.25221336  0.52137167     0.88000
O3416       O  0.81678842  0.24690955  0.55664630    -0.87400
O3417       O  0.79750889  0.20344848  0.51662576    -0.87500
O3418       O  0.84407736  0.20095154  0.51403608    -0.74500
Mg3419     Mg  0.75047883  0.27277425  0.96386673     1.58000
O3420       O  0.72890784  0.19717409  0.95586198    -0.81900
H3421       H  0.79070166  0.33725114  0.51369661    -0.05600
O3422       O  0.85610092  0.26573325  0.51110968    -0.87200
H3423       H  0.88564200  0.24425581  0.98937837    -0.05400
H3424       H  0.79547878  0.26830661  0.58650304    -0.05600
C3425       C  0.86755551  0.25837147  0.98853685     0.87900
C3426       C  0.78953959  0.31872167  0.50023401     0.88500
C3427       C  0.80913852  0.26934900  0.56808517     0.88600
H3428       H  0.81754378  0.17377925  0.49374607    -0.05600
O3429       O  0.79307383  0.21528316  0.95230943    -0.74600
Mg3430     Mg  0.85917270  0.23573112  0.54453923     1.58000
H3431       H  0.81490026  0.23972671  0.92426943    -0.05600
C3432       C  0.87926824  0.33068511  0.96181867     0.93500
O3433       O  0.87964511  0.31085938  0.55707433    -0.81900
C3434       C  0.88111923  0.29454913  0.57863693     0.93600
O3435       O  0.74693219  0.30510694  0.92851729    -0.81800
Mg3436     Mg  0.76294366  0.20150555  0.48858318     1.58200
O3437       O  0.87676895  0.32333851  0.48782308    -0.80200
O3438       O  0.75451971  0.17891581  0.56318100    -0.81900
N3439       N  0.72814309  0.19635466  0.90614407    -0.02600
C3440       C  0.74873962  0.20196600  0.88661128     0.00000
C3441       C  0.75566114  0.17813864  0.87128375    -0.22900
C3442       C  0.73833907  0.15692875  0.88079759    -0.23100
C3443       C  0.72087106  0.16841402  0.90160131    -0.00100
H3444       H  0.77080334  0.17674342  0.85405707     0.13700
H3445       H  0.73754626  0.13568917  0.87210943     0.13700
N3446       N  0.85914734  0.15120189  0.58094233    -0.02600
C3447       C  0.85201929  0.13098145  0.56160681     0.00000
C3448       C  0.87289088  0.11084023  0.55915400    -0.22900
C3449       C  0.89370143  0.11831716  0.57781770    -0.23100
C3450       C  0.88487634  0.14291146  0.59171256    -0.00100
H3451       H  0.87272078  0.09227206  0.54562948     0.13700
H3452       H  0.91307576  0.10637989  0.58060507     0.13700
N3453       N  0.90764954  0.33607602  0.95125814    -0.02600
C3454       C  0.93065393  0.32157867  0.96089847     0.00000
C3455       C  0.95532990  0.33080215  0.94853367    -0.22900
C3456       C  0.94770913  0.35144082  0.92990285    -0.23100
C3457       C  0.91822549  0.35380650  0.93073311    -0.00100
H3458       H  0.97666227  0.32332325  0.95267426     0.13700
H3459       H  0.96260569  0.36328850  0.91707381     0.13700
O3460       O  0.52480065  0.20392317  0.56095579    -0.87500
C3461       C  0.55948786  0.28257777  0.56484660     0.88600
Mg3462     Mg  0.50753993  0.19103165  0.52115162     1.58100
O3463       O  0.49664124  0.27358923  0.60290952    -0.87200
O3464       O  0.51643509  0.21098047  0.60637688    -0.74500
C3465       C  0.93118424  0.29897468  0.98211879     0.93600
O3466       O  0.55766753  0.24050627  0.51307794    -0.74300
O3467       O  0.93524799  0.27358384  0.97402708    -0.81800
Mg3468     Mg  0.56616026  0.22109479  0.55741052     1.58000
C3469       C  0.93290560  0.32890650  0.59628317     0.93500
O3470       O  0.57435684  0.19917479  0.60078417    -0.80100
H3471       H  0.97205792  0.25330013  0.63113449    -0.05400
C3472       C  0.49424559  0.30891852  0.52452751     0.88500
O3473       O  0.96256994  0.20075838  0.53994866    -0.74600
O3474       O  0.55014625  0.25983673  0.57422724    -0.87400
O3475       O  0.95691766  0.32396719  0.60760819    -0.80200
C3476       C  0.54780834  0.32429148  0.62752482     0.93700
C3477       C  0.57917947  0.20993865  0.62498753     0.93500
Mg3478     Mg  0.94236980  0.28554872  0.55075182     1.58000
O3479       O  0.93359566  0.30620806  0.50792755    -0.80100
O3480       O  0.95122855  0.26574240  0.59535082    -0.74300
O3481       O  0.55652187  0.29892156  0.62482585    -0.80200
O3482       O  0.58260837  0.18193080  0.53708415    -0.81900
O3483       O  0.95158832  0.20706116  0.98176917    -0.80200
C3484       C  0.97347565  0.26374587  0.61074742     0.88000
O3485       O  0.95558624  0.24632409  0.53234875    -0.87400
O3486       O  0.98416395  0.29961911  0.54699731    -0.87500
O3487       O  0.49332277  0.29462677  0.00158120    -0.74500
Mg3488     Mg  0.53607703  0.25557113  0.61597986     1.58000
O3489       O  0.52181990  0.33066459  0.62505576    -0.81900
H3490       H  0.50412285  0.17548854  0.58495825    -0.05600
O3491       O  0.51204908  0.23289303  0.00731022    -0.87200
H3492       H  0.53580626  0.25214733  0.97772775    -0.05400
H3493       H  0.92671879  0.22186490  0.55186464    -0.05600
C3494       C  0.53500824  0.24222119  0.99839163     0.87900
C3495       C  0.51463735  0.19586533  0.58390844     0.88500
C3496       C  0.94735207  0.22315745  0.54183037     0.88600
H3497       H  0.50430307  0.32954079  0.52445579    -0.05600
O3498       O  0.54518299  0.30548700  0.56652809    -0.74600
Mg3499     Mg  0.97363135  0.25079247  0.99122348     1.58000
H3500       H  0.58020307  0.28297693  0.55494012    -0.05600
C3501       C  0.57685609  0.17843927  0.01110268     0.93500
O3502       O  0.98885709  0.17975155  0.97831507    -0.81900
C3503       C  0.96220124  0.18256438  0.97750653     0.93600
O3504       O  0.57867413  0.23655648  0.62758826    -0.81800
Mg3505     Mg  0.50087250  0.31495621  0.58593078     1.58200
O3506       O  0.55172309  0.18145461  0.00160838    -0.80200
O3507       O  0.93086371  0.32812795  0.56964315    -0.81900
N3508       N  0.90726887  0.32700998  0.61288730    -0.02600
C3509       C  0.88762138  0.30671647  0.60690085     0.00000
C3510       C  0.87121846  0.30086189  0.63032948    -0.22900
C3511       C  0.88037824  0.31858156  0.65145037    -0.23100
C3512       C  0.90215622  0.33517783  0.64035258    -0.00100
H3513       H  0.85350453  0.28627243  0.63149599     0.13700
H3514       H  0.87114740  0.31979421  0.67244328     0.13700
N3515       N  0.57695823  0.19262928  0.65006508    -0.02600
C3516       C  0.55693843  0.19888963  0.66993501     0.00000
C3517       C  0.54828794  0.17473393  0.68387659    -0.22900
C3518       C  0.56404581  0.15284055  0.67305362    -0.23100
C3519       C  0.58224195  0.16409372  0.65266563    -0.00100
H3520       H  0.53274274  0.17329053  0.70075644     0.13700
H3521       H  0.56280025  0.13118248  0.68042454     0.13700
N3522       N  0.94470471  0.15754801  0.98047494    -0.02600
C3523       C  0.95023539  0.13836006  0.00139806     0.00000
C3524       C  0.92609893  0.12347783  0.00839067    -0.22900
C3525       C  0.90495856  0.13306821  0.99092105    -0.23100
C3526       C  0.91667317  0.15357342  0.97324944    -0.00100
H3527       H  0.92443874  0.10634424  0.02357423     0.13700
H3528       H  0.88355813  0.12472812  0.99044640     0.13700
O3529       O  0.80420801  0.06459651  0.49606518    -0.87500
C3530       C  0.73649029  0.11625996  0.50613281     0.88600
Mg3531     Mg  0.80747797  0.03570753  0.96189708     1.58100
O3532       O  0.74039836  0.06017631  0.55395600    -0.87200
O3533       O  0.80540646  0.06447086  0.54275359    -0.74500
C3534       C  0.67916947  0.47951965  0.95745975     0.93600
O3535       O  0.76429072  0.09345866  0.94918658    -0.74300
O3536       O  0.70112233  0.47946067  0.94173116    -0.81800
Mg3537     Mg  0.79370231  0.10737653  0.48560057     1.58000
C3538       C  0.67772346  0.01003116  0.57479442     0.93500
O3539       O  0.82519740  0.12008782  0.52071399    -0.80100
H3540       H  0.76184381  0.03855729  0.58356238    -0.05400
C3541       C  0.69025888  0.05037279  0.98612383     0.88500
O3542       O  0.79252540  0.49959095  0.49118260    -0.74600
O3543       O  0.75876572  0.10451004  0.51393275    -0.87400
O3544       O  0.68505355  0.03605275  0.57491625    -0.80200
C3545       C  0.70777930  0.12672349  0.57736368     0.93700
C3546       C  0.82475868  0.12801691  0.54654423     0.93500
Mg3547     Mg  0.71168767  0.49946629  0.51885297     1.58000
O3548       O  0.68090929  0.48604399  0.48365280    -0.80100
O3549       O  0.74131783  0.51347889  0.55516220    -0.74300
O3550       O  0.73391263  0.12490130  0.57052160    -0.80200
O3551       O  0.82828769  0.11237189  0.95252716    -0.81900
O3552       O  0.76955693  0.48078766  0.93375959    -0.80200
C3553       C  0.74817072  0.03764947  0.56516328     0.88000
O3554       O  0.74587849  0.50193176  0.49012020    -0.87400
O3555       O  0.70131860  0.04224833  0.50861197    -0.87500
O3556       O  0.69997610  0.04331783  0.96188348    -0.74500
Mg3557     Mg  0.76903435  0.09424144  0.55669741     1.58000
O3558       O  0.69182977  0.10494415  0.57695468    -0.81900
H3559       H  0.83361880  0.04321128  0.51801625    -0.05600
O3560       O  0.76493133  0.04672711  0.95070601    -0.87200
H3561       H  0.74353638  0.06830717  0.92105098    -0.05400
H3562       H  0.76667635  0.47159385  0.51132686    -0.05600
C3563       C  0.75731422  0.06925376  0.93936409     0.87900
C3564       C  0.81531832  0.05704157  0.51870181     0.88500
C3565       C  0.76809171  0.49008508  0.49783495     0.88600
H3566       H  0.67225847  0.06458803  0.98713564    -0.05600
O3567       O  0.71205659  0.10697711  0.51321034    -0.74600
Mg3568     Mg  0.73551001  0.01293726  0.94742602     1.58000
H3569       H  0.73783893  0.13452173  0.49230660    -0.05600
C3570       C  0.82921157  0.09710382  0.93030628     0.93500
O3571       O  0.81146750  0.50186208  0.92754156    -0.81900
C3572       C  0.79561262  0.47995221  0.92647959     0.93600
O3573       O  0.80175211  0.12922352  0.56061382    -0.81800
Mg3574     Mg  0.69771707  0.07089892  0.54306232     1.58200
O3575       O  0.82254783  0.07085054  0.93125960    -0.80200
O3576       O  0.67695492  0.49561130  0.55198365    -0.81900
N3577       N  0.83110667  0.11065569  0.90286420    -0.02600
C3578       C  0.81089912  0.10510896  0.88281883     0.00000
C3579       C  0.80811791  0.12727239  0.86421356    -0.22900
C3580       C  0.82727029  0.14734715  0.87243204    -0.23100
C3581       C  0.84198464  0.13687221  0.89586851    -0.00100
H3582       H  0.79409922  0.12840007  0.84605129     0.13700
H3583       H  0.82975628  0.16755781  0.86190523     0.13700
N3584       N  0.69567981  0.15466744  0.58087461    -0.02600
C3585       C  0.70453108  0.17734981  0.56522388     0.00000
C3586       C  0.68652647  0.20000901  0.56836986    -0.22900
C3587       C  0.66567554  0.19145148  0.58654792    -0.23100
C3588       C  0.67097766  0.16325297  0.59373476    -0.00100
H3589       H  0.68899949  0.22099588  0.55935688     0.13700
H3590       H  0.64899741  0.20521271  0.59424162     0.13700
N3591       N  0.65128468  0.47752163  0.94486428    -0.02600
C3592       C  0.62967032  0.49494124  0.95294040     0.00000
C3593       C  0.60808901  0.49481833  0.93336980    -0.22900
C3594       C  0.61620517  0.47658352  0.91237790    -0.23100
C3595       C  0.64302149  0.46622723  0.91935492    -0.00100
H3596       H  0.58797000  0.50585304  0.93485592     0.13700
H3597       H  0.60291711  0.47082705  0.89459375     0.13700
O3598       O  0.81112353  0.25194086  0.81645579    -0.87500
C3599       C  0.79967335  0.31926138  0.86721391     0.88600
Mg3600     Mg  0.84531885  0.24947264  0.78772586     1.58100
O3601       O  0.75278432  0.31459549  0.81051030    -0.87200
O3602       O  0.76447660  0.24959259  0.81539126    -0.74500
C3603       C  0.84921498  0.37672153  0.72921084     0.93600
O3604       O  0.85701388  0.29333733  0.84469694    -0.74300
O3605       O  0.86516652  0.35494427  0.72962028    -0.81800
Mg3606     Mg  0.82148359  0.26295083  0.85915140     1.58000
C3607       C  0.73224054  0.37800838  0.76002657     0.93500
O3608       O  0.78743834  0.23079357  0.87281429    -0.80100
H3609       H  0.72337766  0.29320498  0.78855724    -0.05400
C3610       C  0.82050174  0.36626342  0.80044250     0.88500
O3611       O  0.81569212  0.26347606  0.75141257    -0.74600
O3612       O  0.79205883  0.29673432  0.85586992    -0.87400
O3613       O  0.73179779  0.37008444  0.78585816    -0.80200
C3614       C  0.72777987  0.34709723  0.87627192     0.93700
C3615       C  0.76138205  0.22995567  0.88009297     0.93500
Mg3616     Mg  0.78796460  0.34423364  0.74987810     1.58000
O3617       O  0.82308204  0.37489657  0.73605290    -0.80100
O3618       O  0.75159365  0.31446127  0.76382155    -0.74300
O3619       O  0.73444229  0.32084440  0.87531500    -0.80200
O3620       O  0.85587659  0.22948450  0.86484963    -0.81900
O3621       O  0.87195786  0.28605649  0.73166549    -0.80200
C3622       C  0.74167776  0.30703634  0.78787278     0.88000
O3623       O  0.81660442  0.31017280  0.75262315    -0.87400
O3624       O  0.79822770  0.35451001  0.79264276    -0.87500
O3625       O  0.84493657  0.35698328  0.79336564    -0.74500
Mg3626     Mg  0.74951569  0.28570674  0.84467682     1.58000
O3627       O  0.72870659  0.36236900  0.85405362    -0.81900
H3628       H  0.79033044  0.22159993  0.79524704    -0.05600
O3629       O  0.85568594  0.29225682  0.79796764    -0.87200
H3630       H  0.88473596  0.31460656  0.81944918    -0.05400
H3631       H  0.79516798  0.28855192  0.72301038    -0.05600
C3632       C  0.86673755  0.30038807  0.82045802     0.87900
C3633       C  0.78891204  0.24009084  0.80873947     0.88500
C3634       C  0.80883756  0.28764554  0.74141209     0.88600
H3635       H  0.81915092  0.38452629  0.81426787    -0.05600
O3636       O  0.79269911  0.34346557  0.85739018    -0.74600
Mg3637     Mg  0.85928405  0.32090400  0.76351634     1.58000
H3638       H  0.81344809  0.31831573  0.88552938    -0.05600
C3639       C  0.87783052  0.22953815  0.84912239     0.93500
O3640       O  0.88005431  0.24561355  0.75459407    -0.81900
C3641       C  0.87929044  0.26003553  0.73178475     0.93600
O3642       O  0.74552664  0.25186439  0.87903261    -0.81800
Mg3643     Mg  0.76329002  0.35737691  0.82097490     1.58200
O3644       O  0.87609443  0.23605743  0.82292826    -0.80200
O3645       O  0.75524806  0.37921219  0.74595875    -0.81900
N3646       N  0.86131296  0.40466659  0.72570395    -0.02600
C3647       C  0.85246512  0.42734404  0.74136411     0.00000
C3648       C  0.87047838  0.44999905  0.73823558    -0.22900
C3649       C  0.89132955  0.44144519  0.72005621    -0.23100
C3650       C  0.88601908  0.41325231  0.71285167    -0.00100
H3651       H  0.86801112  0.47098145  0.74726092     0.13700
H3652       H  0.90801332  0.45520587  0.71237393     0.13700
N3653       N  0.72588136  0.36064378  0.90371656    -0.02600
C3654       C  0.74608723  0.35509853  0.92376420     0.00000
C3655       C  0.74885844  0.37725808  0.94237637    -0.22900
C3656       C  0.72970194  0.39732834  0.93416006    -0.23100
C3657       C  0.71499509  0.38685477  0.91071742    -0.00100
H3658       H  0.76287382  0.37838637  0.96054133     0.13700
H3659       H  0.72720982  0.41753601  0.94469170     0.13700
N3660       N  0.90571325  0.22753647  0.86172044    -0.02600
C3661       C  0.92733130  0.24495234  0.85364522     0.00000
C3662       C  0.94890530  0.24483743  0.87322346    -0.22900
C3663       C  0.94078151  0.22661013  0.89421831    -0.23100
C3664       C  0.91396767  0.21624896  0.88723513    -0.00100
H3665       H  0.96902468  0.25587241  0.87174101     0.13700
H3666       H  0.95406524  0.22086138  0.91200793     0.13700
O3667       O  0.74021043  0.99690704  0.74993706    -0.87500
C3668       C  0.68944244  0.00836319  0.81804358     0.88600
Mg3669     Mg  0.76958585  0.46351118  0.74723260     1.58100
O3670       O  0.74509501  0.05683767  0.81365261    -0.87200
O3671       O  0.74119072  0.04356888  0.74843311    -0.74500
C3672       C  0.82807769  0.46129981  0.87358546     0.93600
O3673       O  0.71291743  0.45095155  0.79254359    -0.74300
O3674       O  0.82810139  0.44718526  0.85071135    -0.81800
Mg3675     Mg  0.69782337  0.98572907  0.76203740     1.58000
C3676       C  0.79575395  0.07800122  0.87801944     0.93500
O3677       O  0.68314321  0.01856675  0.72923811    -0.80100
H3678       H  0.76628645  0.08725429  0.79289543    -0.05400
C3679       C  0.75627213  0.48926541  0.86424942     0.88500
O3680       O  0.80525046  0.99425708  0.76114740    -0.74600
O3681       O  0.70089243  0.01573051  0.79547008    -0.87400
O3682       O  0.76975237  0.07859821  0.87011224    -0.80200
C3683       C  0.67772371  0.08067600  0.84476788     0.93700
C3684       C  0.67588393  0.04455025  0.72793709     0.93500
Mg3685     Mg  0.80652178  0.02277949  0.84271226     1.58000
O3686       O  0.82115054  0.98747473  0.87341912    -0.80100
O3687       O  0.79178013  0.05932418  0.81359408    -0.74300
O3688       O  0.68022649  0.07333458  0.81876190    -0.80200
O3689       O  0.69274070  0.45054857  0.72971313    -0.81900
O3690       O  0.82628577  0.43887646  0.78280993    -0.80200
C3691       C  0.76745189  0.06872315  0.80635475     0.88000
O3692       O  0.80367848  0.99444854  0.80782710    -0.87400
O3693       O  0.76386007  0.01208465  0.85344637    -0.87500
O3694       O  0.76393316  0.46528413  0.85427841    -0.74500
Mg3695     Mg  0.71130468  0.05826253  0.78407483     1.58000
O3696       O  0.69896434  0.07990756  0.86154869    -0.81900
H3697       H  0.76153157  0.01830745  0.72009139    -0.05600
O3698       O  0.75948680  0.45344832  0.78996058    -0.87200
H3699       H  0.73944762  0.42378373  0.81284242    -0.05400
H3700       H  0.83259995  0.01658246  0.78590425    -0.05600
C3701       C  0.73755608  0.44173781  0.79868454     0.87900
C3702       C  0.74786599  0.01934798  0.73850491     0.88500
C3703       C  0.81471753  0.00221206  0.78520770     0.88600
H3704       H  0.74211018  0.48972830  0.88232078    -0.05600
O3705       O  0.69885296  0.01604970  0.84220659    -0.74600
Mg3706     Mg  0.79405669  0.45150810  0.81800008     1.58000
H3707       H  0.67135732  0.99424492  0.81720185    -0.05600
C3708       C  0.70943869  0.42938488  0.72807518     0.93500
O3709       O  0.80247511  0.42890825  0.74340354    -0.81900
C3710       C  0.82558878  0.43037326  0.75712275     0.93600
O3711       O  0.67735843  0.06086093  0.74950063    -0.81800
Mg3712     Mg  0.73447397  0.04640805  0.85653784     1.58200
O3713       O  0.73572744  0.43189958  0.73370236    -0.80200
O3714       O  0.81006834  0.05511766  0.87805725    -0.81900
N3715       N  0.69784848  0.40119208  0.72563467    -0.02600
C3716       C  0.70498405  0.38096382  0.74495790     0.00000
C3717       C  0.68413183  0.36079944  0.74738159    -0.22900
C3718       C  0.66332468  0.36827025  0.72871291    -0.23100
C3719       C  0.67213129  0.39288659  0.71484483    -0.00100
H3720       H  0.68431392  0.34221907  0.76088869     0.13700
H3721       H  0.64396636  0.35631163  0.72590586     0.13700
N3722       N  0.64934194  0.08607492  0.85532221    -0.02600
C3723       C  0.62633432  0.07158992  0.84567144     0.00000
C3724       C  0.60165720  0.08083046  0.85802209    -0.22900
C3725       C  0.60928158  0.10146587  0.87665695    -0.23100
C3726       C  0.63876673  0.10381311  0.87584054    -0.00100
H3727       H  0.58032230  0.07336362  0.85387119     0.13700
H3728       H  0.59438800  0.11332379  0.88948046     0.13700
N3729       N  0.82885699  0.44635690  0.90042871    -0.02600
C3730       C  0.80825362  0.45196338  0.91995552     0.00000
C3731       C  0.80132205  0.42813093  0.93527048    -0.22900
C3732       C  0.81864644  0.40692297  0.92575692    -0.23100
C3733       C  0.83612387  0.41841407  0.90496505    -0.00100
H3734       H  0.78617228  0.42673113  0.95249013     0.13700
H3735       H  0.81943537  0.38568078  0.93443824     0.13700
C3736       C  0.65184785  0.14904823  0.94082600     0.04000
C3737       C  0.67916708  0.15973458  0.93507448    -0.12100
C3738       C  0.69342265  0.15401505  0.90959579     0.01500
C3739       C  0.68023448  0.13523937  0.89014532    -0.10700
C3740       C  0.65424164  0.12210299  0.89655334     0.04000
C3741       C  0.64039881  0.12922528  0.92222420    -0.10100
H3742       H  0.68843336  0.17335165  0.95043695     0.09600
H3743       H  0.68928643  0.13209718  0.86933428     0.07100
H3744       H  0.61976857  0.12068475  0.92705638     0.07000
C3745       C  0.90275291  0.87210362  0.41002385     0.04000
C3746       C  0.87676040  0.88524251  0.41643082    -0.12100
C3747       C  0.86357399  0.90401620  0.39697761     0.01500
C3748       C  0.87782972  0.90973194  0.37149898    -0.10700
C3749       C  0.90514943  0.89904778  0.36575068     0.04000
C3750       C  0.91659668  0.87922583  0.38435303    -0.10100
H3751       H  0.86770541  0.88210233  0.43724068     0.09600
H3752       H  0.86856211  0.92334234  0.35613276     0.07100
H3753       H  0.93722518  0.87068415  0.37951838     0.07000
C3754       C  0.65664618  0.90477714  0.18950549     0.04000
C3755       C  0.66519996  0.92965775  0.17539435    -0.12100
C3756       C  0.65044453  0.94051339  0.15155635     0.01500
C3757       C  0.62729803  0.92475048  0.14152306    -0.10700
C3758       C  0.61943251  0.89856285  0.15376774     0.04000
C3759       C  0.63433065  0.88895427  0.17741876    -0.10100
H3760       H  0.68453208  0.93945005  0.18174586     0.09600
H3761       H  0.61637314  0.93177539  0.12299261     0.07100
H3762       H  0.62991481  0.86789225  0.18481668     0.07000
C3763       C  0.91264135  0.86136295  0.15544111     0.04000
C3764       C  0.93857007  0.87458826  0.14880477    -0.12100
C3765       C  0.94859160  0.89844594  0.16398478     0.01500
C3766       C  0.93210081  0.90819738  0.18669572    -0.10700
C3767       C  0.90476378  0.89737398  0.19242499     0.04000
C3768       C  0.89520530  0.87422501  0.17632599    -0.10100
H3769       H  0.95053459  0.86708402  0.13115015     0.09600
H3770       H  0.94000345  0.92500232  0.19959057     0.07100
H3771       H  0.87361019  0.86712210  0.17898408     0.07000
C3772       C  0.60839948  0.64844053  0.14259087     0.04000
C3773       C  0.61841546  0.62457487  0.15776226    -0.12100
C3774       C  0.64434460  0.61134971  0.15112617     0.01500
C3775       C  0.66178271  0.62421467  0.13024505    -0.10700
C3776       C  0.65222818  0.64736848  0.11415198     0.04000
C3777       C  0.62489249  0.65819422  0.11988272    -0.10100
H3778       H  0.60644838  0.61706473  0.17541220     0.09600
H3779       H  0.68337786  0.61711195  0.12758790     0.07100
H3780       H  0.61699523  0.67500496  0.10699421     0.07000
C3781       C  0.93757093  0.64856113  0.15279449     0.04000
C3782       C  0.92971790  0.67475413  0.16503959    -0.12100
C3783       C  0.90657541  0.69052436  0.15501121     0.01500
C3784       C  0.89181278  0.67967526  0.13117237    -0.10700
C3785       C  0.90035940  0.65479091  0.11705913     0.04000
C3786       C  0.92266538  0.63895710  0.12914541    -0.10100
H3787       H  0.94065020  0.68177696  0.18356622     0.09600
H3788       H  0.87249615  0.68946844  0.12482689     0.07100
H3789       H  0.92706794  0.61789140  0.12174818     0.07000
C3790       C  0.89967154  0.69345842  0.40436490     0.04000
C3791       C  0.90970158  0.68742403  0.43183510    -0.12100
C3792       C  0.90206606  0.66259551  0.44620587     0.01500
C3793       C  0.88074792  0.64516277  0.43387749    -0.10700
C3794       C  0.86715475  0.65267541  0.40830285     0.04000
C3795       C  0.87884919  0.67567220  0.39283654    -0.10100
H3796       H  0.92418331  0.70185822  0.44153245     0.09600
H3797       H  0.87579589  0.62520862  0.44360287     0.07100
H3798       H  0.87286387  0.67896593  0.37109123     0.07000
C3799       C  0.65492943  0.91259126  0.36036846     0.04000
C3800       C  0.67624272  0.89515302  0.37269599    -0.12100
C3801       C  0.68982675  0.90265593  0.39827992     0.01500
C3802       C  0.67812763  0.92564628  0.41375175    -0.10700
C3803       C  0.65731507  0.94343926  0.40222185     0.04000
C3804       C  0.64729237  0.93741615  0.37474632    -0.10100
H3805       H  0.68119759  0.87520358  0.36296150     0.09600
H3806       H  0.68410353  0.92893288  0.43550096     0.07100
H3807       H  0.63281844  0.95185535  0.36505212     0.07000
O3808       O  0.99998538  0.56502345  0.06148937    -0.87500
C3809       C  0.56817697  0.61585856  0.05049655     0.88600
Mg3810     Mg  0.99782198  0.53468102  0.09458460     1.58100
O3811       O  0.56330986  0.56040222  0.50197708    -0.87200
O3812       O  0.99818522  0.56521934  0.51479090    -0.74500
C3813       C  0.62626878  0.97818559  0.09700865     0.93600
O3814       O  0.54180819  0.59204414  0.10776684    -0.74300
O3815       O  0.60462485  0.97912878  0.11306496    -0.81800
Mg3816     Mg  0.01154502  0.60751215  0.07288158     1.58000
C3817       C  0.62663700  0.00998902  0.48017631     0.93500
O3818       O  0.97932499  0.62300582  0.03945393    -0.80100
H3819       H  0.54138405  0.53874165  0.47274369    -0.05400
C3820       C  0.61469415  0.54991207  0.06889193     0.88500
O3821       O  0.01254757  0.99961561  0.06401076    -0.74600
O3822       O  0.54548293  0.60467444  0.04305113    -0.87400
O3823       O  0.61877431  0.53587033  0.47987137    -0.80200
C3824       C  0.59625368  0.62700399  0.47828404     0.93700
C3825       C  0.97839997  0.63088485  0.51358509     0.93500
Mg3826     Mg  0.59315969  0.99901819  0.03615700     1.58000
O3827       O  0.62433980  0.98460123  0.07078515    -0.80100
O3828       O  0.56295206  0.01366587  0.50038588    -0.74300
O3829       O  0.57009639  0.62562138  0.48568308    -0.80200
O3830       O  0.97828666  0.61239983  0.10794263    -0.81900
O3831       O  0.53725059  0.97929270  0.12218328    -0.80200
C3832       C  0.55549110  0.53785683  0.49081282     0.88000
O3833       O  0.55927847  0.00103671  0.06524944    -0.87400
O3834       O  0.60344036  0.54180216  0.04651001    -0.87500
O3835       O  0.60527189  0.54271438  0.09318819    -0.74500
Mg3836     Mg  0.53437224  0.59477281  0.50026598     1.58000
O3837       O  0.61170646  0.60486464  0.47794984    -0.81900
H3838       H  0.96988299  0.54440846  0.03977170    -0.05600
O3839       O  0.54055162  0.54538638  0.10533223    -0.87200
H3840       H  0.56310641  0.56609615  0.13469976    -0.05400
H3841       H  0.53793622  0.97172504  0.04317668    -0.05600
C3842       C  0.54871108  0.56758314  0.11689879     0.87900
C3843       C  0.98840229  0.55793425  0.03893522     0.88500
C3844       C  0.53683512  0.98981928  0.05722915     0.88600
H3845       H  0.63256258  0.56428370  0.06774490    -0.05600
O3846       O  0.59230538  0.60649585  0.04246650    -0.74600
Mg3847     Mg  0.57020393  0.01198528  0.10789387     1.58000
H3848       H  0.56747405  0.63371911  0.06486929    -0.05600
C3849       C  0.97677926  0.59552358  0.12898087     0.93500
O3850       O  0.99445239  0.99868862  0.12745610    -0.81900
C3851       C  0.01123519  0.97744165  0.12924119     0.93600
O3852       O  0.00015266  0.62926896  0.49746465    -0.81800
Mg3853     Mg  0.60630257  0.57071144  0.51204078     1.58200
O3854       O  0.98306631  0.56920419  0.12635968    -0.80200
O3855       O  0.62782078  0.99576677  0.50305563    -0.81900
N3856       N  0.60908218  0.65478646  0.47522151    -0.02600
C3857       C  0.60064140  0.67726864  0.49119738     0.00000
C3858       C  0.61892877  0.69977599  0.48881321    -0.22900
C3859       C  0.63977275  0.69138939  0.47072270    -0.23100
C3860       C  0.63406584  0.66348217  0.46285568    -0.00100
H3861       H  0.61725923  0.72017911  0.49923543     0.13700
H3862       H  0.65685119  0.70497840  0.46359122     0.13700
N3863       N  0.97269945  0.60662395  0.15732797    -0.02600
C3864       C  0.98836469  0.59717674  0.17949266     0.00000
C3865       C  0.98401361  0.61307282  0.20345409    -0.22900
C3866       C  0.96497947  0.63354509  0.19620553    -0.23100
C3867       C  0.95857276  0.62996355  0.16758176    -0.00100
H3868       H  0.99379243  0.61016230  0.22402568     0.13700
H3869       H  0.95659544  0.64898484  0.21093632     0.13700
N3870       N  0.65420112  0.97602943  0.10948251    -0.02600
C3871       C  0.67446535  0.99534997  0.10229234     0.00000
C3872       C  0.69394251  0.99872527  0.12363464    -0.22900
C3873       C  0.68604782  0.98069278  0.14486787    -0.23100
C3874       C  0.66180208  0.96622993  0.13592907    -0.00100
H3875       H  0.71240027  0.01243362  0.12350923     0.13700
H3876       H  0.69771044  0.97853161  0.16444460     0.13700
O3877       O  0.49369955  0.81041153  0.30459998    -0.87500
C3878       C  0.94231170  0.79991071  0.23768928     0.88600
Mg3879     Mg  0.52263380  0.84478572  0.30630468     1.58100
O3880       O  0.49773386  0.75104715  0.24132740    -0.87200
O3881       O  0.49406544  0.76367519  0.30619031    -0.74500
C3882       C  0.58020794  0.84554231  0.17758063     0.93600
O3883       O  0.96469112  0.85649921  0.26411279    -0.74300
O3884       O  0.57869066  0.86242318  0.19861493    -0.81800
Mg3885     Mg  0.95070403  0.82071355  0.29453879     1.58000
C3886       C  0.54577298  0.72745407  0.17733765     0.93500
O3887       O  0.93823504  0.78587409  0.32670818    -0.80100
H3888       H  0.51908474  0.72174242  0.26339922    -0.05400
C3889       C  0.50827747  0.81759171  0.18967303     0.88500
O3890       O  0.55882114  0.81523905  0.29177085    -0.74600
O3891       O  0.95356928  0.79180380  0.26007000    -0.87400
O3892       O  0.51975816  0.72930244  0.18439694    -0.80200
C3893       C  0.93074656  0.72818261  0.20957500     0.93700
C3894       C  0.93037381  0.75999217  0.32640634     0.93500
Mg3895     Mg  0.55917903  0.78470081  0.21198140     1.58000
O3896       O  0.57392806  0.81922161  0.18020459    -0.80100
O3897       O  0.54446483  0.74963618  0.24255943    -0.74300
O3898       O  0.93267257  0.73460112  0.23579820    -0.80200
O3899       O  0.94529764  0.85486651  0.32862942    -0.81900
O3900       O  0.57767173  0.87302813  0.26710237    -0.80200
C3901       C  0.52018033  0.73983541  0.24934534     0.88000
O3902       O  0.55701231  0.81504502  0.24507293    -0.87400
O3903       O  0.51644636  0.79539718  0.20123639    -0.87500
O3904       O  0.51517365  0.84205489  0.19880584    -0.74500
Mg3905     Mg  0.96385540  0.74902191  0.27042308     1.58000
O3906       O  0.95239265  0.72912213  0.19352191    -0.81900
H3907       H  0.51563366  0.78875578  0.33382920    -0.05600
O3908       O  0.51151341  0.85468667  0.26352217    -0.87200
H3909       H  0.98951489  0.88372690  0.24170748    -0.05400
H3910       H  0.58712277  0.79443591  0.26678295    -0.05600
C3911       C  0.98881674  0.86586652  0.25608029     0.87900
C3912       C  0.50152384  0.78786784  0.31576264     0.88500
C3913       C  0.56860115  0.80795777  0.26762417     0.88600
H3914       H  0.49387896  0.81610040  0.17187510    -0.05600
O3915       O  0.95173083  0.79271209  0.21339185    -0.74600
Mg3916     Mg  0.54544305  0.85753025  0.23368361     1.58000
H3917       H  0.92444212  0.81428021  0.23883836    -0.05600
C3918       C  0.96074935  0.87700694  0.32829748     0.93500
O3919       O  0.55685283  0.87928449  0.30909715    -0.81900
C3920       C  0.57860220  0.88090406  0.29297221     0.93600
O3921       O  0.92919738  0.74576394  0.30352960    -0.81800
Mg3922     Mg  0.48680199  0.76198889  0.19868401     1.58200
O3923       O  0.48690682  0.87562712  0.32089764    -0.80200
O3924       O  0.56255239  0.74870476  0.17911503    -0.81900
N3925       N  0.90281663  0.72603173  0.19709582    -0.02600
C3926       C  0.88255689  0.74535887  0.20428320     0.00000
C3927       C  0.86309556  0.74875232  0.18292980    -0.22900
C3928       C  0.87099433  0.73072527  0.16169205    -0.23100
C3929       C  0.89522600  0.71624585  0.17064048    -0.00100
H3930       H  0.84464502  0.76247031  0.18304904     0.13700
H3931       H  0.85934650  0.72858010  0.14210978     0.13700
N3932       N  0.58429242  0.85663765  0.14923335    -0.02600
C3933       C  0.56862668  0.84719017  0.12706978     0.00000
C3934       C  0.57297985  0.86308346  0.10310724    -0.22900
C3935       C  0.59201805  0.88355378  0.11035515    -0.23100
C3936       C  0.59842397  0.87997310  0.13897924    -0.00100
H3937       H  0.56320164  0.86017136  0.08253552     0.13700
H3938       H  0.60040588  0.89899062  0.09562374     0.13700
N3939       N  0.94791850  0.90478809  0.33136002    -0.02600
C3940       C  0.95635709  0.92726881  0.31538193     0.00000
C3941       C  0.93806597  0.94977329  0.31776040    -0.22900
C3942       C  0.91722147  0.94138623  0.33584995    -0.23100
C3943       C  0.92293198  0.91348138  0.34372156    -0.00100
H3944       H  0.93973303  0.97017429  0.30733464     0.13700
H3945       H  0.90013981  0.95497323  0.34297698     0.13700
O3946       O  0.60141060  0.49631790  0.27423264    -0.87500
C3947       C  0.52199124  0.49221449  0.30819101     0.88600
Mg3948     Mg  0.61462566  0.53554011  0.25582488     1.59700
O3949       O  0.53219971  0.95391373  0.24562629    -0.87200
O3950       O  0.59443039  0.95075061  0.26663663    -0.74500
C3951       C  0.00918595  0.57427991  0.17904153     0.93600
O3952       O  0.56367139  0.54462297  0.30499262    -0.74300
O3953       O  0.53517353  0.58065696  0.18151592    -0.81800
Mg3954     Mg  0.58336502  0.50079273  0.31535757     1.58000
C3955       C  0.97781977  0.95993442  0.18159213     0.93500
O3956       O  0.60540986  0.95706644  0.32481597    -0.80100
H3957       H  0.55287809  0.92547945  0.22162318    -0.05400
C3958       C  0.99751178  0.53257008  0.24172954     0.88500
O3959       O  0.60576833  0.51572744  0.21122817    -0.74600
O3960       O  0.54495035  0.98288744  0.29927189    -0.87400
O3961       O  0.98264354  0.94917112  0.20579521    -0.80200
C3962       C  0.98014304  0.92843826  0.29547804     0.93700
C3963       C  0.59479878  0.93256843  0.32907584     0.93500
Mg3964     Mg  0.52092174  0.50556091  0.19059755     1.58000
O3965       O  0.00047508  0.54890947  0.18174513    -0.80100
O3966       O  0.54056379  0.96097001  0.20020478    -0.74300
O3967       O  0.50527600  0.93145141  0.30497360    -0.80200
O3968       O  0.62174524  0.52359062  0.33255346    -0.81900
O3969       O  0.60007810  0.57395555  0.19896471    -0.80200
C3970       C  0.54236285  0.94585583  0.22267334     0.88000
O3971       O  0.56035731  0.52357928  0.20366389    -0.87400
O3972       O  0.00685666  0.50982934  0.23235196    -0.87500
O3973       O  0.51181366  0.55548096  0.24004485    -0.74500
Mg3974     Mg  0.54945996  0.94102567  0.28543227     1.58000
O3975       O  0.97439207  0.93192748  0.26949613    -0.81900
H3976       H  0.63028159  0.97185832  0.25472213    -0.05600
O3977       O  0.57283132  0.54961032  0.25957593    -0.87200
H3978       H  0.55268989  0.57953287  0.28211451    -0.05400
H3979       H  0.58494054  0.50328263  0.17544400    -0.05600
C3980       C  0.56274854  0.55891156  0.28204485     0.87900
C3981       C  0.60964718  0.97315059  0.26475431     0.88500
C3982       C  0.58352241  0.51373184  0.19582952     0.88600
H3983       H  0.97679623  0.53296758  0.25163571    -0.05600
O3984       O  0.99933270  0.49050055  0.29350360    -0.74600
Mg3985     Mg  0.55612378  0.56494724  0.22064170     1.58000
H3986       H  0.52119280  0.50213921  0.32885597    -0.05600
C3987       C  0.62580512  0.54898015  0.32445669     0.93500
O3988       O  0.62613359  0.57811619  0.23692923    -0.81900
C3989       C  0.62409037  0.57889544  0.21028932     0.93600
O3990       O  0.56814292  0.92975375  0.32827111    -0.81800
Mg3991     Mg  0.99084132  0.97108920  0.24916986     1.58200
O3992       O  0.62339502  0.55620665  0.29864634    -0.80200
O3993       O  0.97832428  0.98655153  0.17899133    -0.81900
N3994       N  0.61229628  0.90755537  0.32609299    -0.02600
C3995       C  0.60676890  0.88838185  0.30515524     0.00000
C3996       C  0.63090888  0.87350950  0.29815201    -0.22900
C3997       C  0.65204673  0.88309014  0.31563220    -0.23100
C3998       C  0.64032760  0.90358142  0.33331743    -0.00100
H3999       H  0.63257243  0.85638628  0.28295680     0.13700
H4000       H  0.67344791  0.87475227  0.31610510     0.13700
N4001       N  0.64972649  0.57700364  0.19368393    -0.02600
C4002       C  0.66937970  0.55671630  0.19967199     0.00000
C4003       C  0.68577841  0.55085870  0.17624067    -0.22900
C4004       C  0.67661058  0.56857078  0.15511734    -0.23100
C4005       C  0.65483169  0.58516557  0.16621550    -0.00100
H4006       H  0.70349329  0.53627088  0.17507274     0.13700
H4007       H  0.68583712  0.56978045  0.13412232     0.13700
N4008       N  0.98004252  0.94262502  0.15651508    -0.02600
C4009       C  0.00007264  0.94887799  0.13665329     0.00000
C4010       C  0.00872954  0.92471635  0.12272487    -0.22900
C4011       C  0.99296329  0.90282776  0.13354631    -0.23100
C4012       C  0.97475749  0.91408996  0.15392024    -0.00100
H4013       H  0.02428239  0.92326612  0.10585256     0.13700
H4014       H  0.99420759  0.88116684  0.12618278     0.13700
O4015       O  0.81189830  0.80683985  0.99293629    -0.87500
C4016       C  0.80073498  0.73926438  0.44233814     0.88600
Mg4017     Mg  0.84569252  0.80826474  0.02251068     1.58100
O4018       O  0.75332052  0.74444651  0.99875283    -0.87200
O4019       O  0.76521314  0.80932152  0.99298858    -0.74500
C4020       C  0.84755454  0.67939272  0.07850643     0.93600
O4021       O  0.85814832  0.76606228  0.46437450    -0.74300
O4022       O  0.86425287  0.70055587  0.07686187    -0.81800
Mg4023     Mg  0.82252185  0.79641535  0.45004910     1.58000
C4024       C  0.73140588  0.68037862  0.04946211     0.93500
O4025       O  0.78723858  0.82859928  0.43647580    -0.80100
H4026       H  0.72440045  0.76658453  0.02067371    -0.05400
C4027       C  0.81943787  0.69173582  0.00790110     0.88500
O4028       O  0.81581259  0.79357066  0.05815867    -0.74600
O4029       O  0.79314258  0.76208426  0.45313765    -0.87400
O4030       O  0.73070833  0.68887735  0.02377335    -0.80200
C4031       C  0.72892928  0.71129230  0.43299040     0.93700
C4032       C  0.76123945  0.82799500  0.42856118     0.93500
Mg4033     Mg  0.78741010  0.71351649  0.05935195     1.58000
O4034       O  0.82126467  0.68190532  0.07288508    -0.80100
O4035       O  0.75174887  0.74426188  0.04543281    -0.74300
O4036       O  0.73585613  0.73746724  0.43316042    -0.80200
O4037       O  0.85802369  0.82992397  0.44504265    -0.81900
O4038       O  0.87385780  0.76856635  0.07733636    -0.80200
C4039       C  0.74228216  0.75221336  0.02137163     0.88000
O4040       O  0.81678840  0.74690956  0.05664630    -0.87400
O4041       O  0.79750888  0.70344851  0.01662575    -0.87500
O4042       O  0.84407734  0.70095153  0.01403609    -0.74500
Mg4043     Mg  0.75047884  0.77277426  0.46386675     1.58000
O4044       O  0.72890784  0.69717409  0.45586200    -0.81900
H4045       H  0.79070161  0.83725112  0.01369666    -0.05600
O4046       O  0.85610089  0.76573325  0.01110968    -0.87200
H4047       H  0.88564208  0.74425568  0.48937837    -0.05400
H4048       H  0.79547880  0.76830663  0.08650293    -0.05600
C4049       C  0.86755547  0.75837148  0.48853686     0.87900
C4050       C  0.78953955  0.81872163  0.00023400     0.88500
C4051       C  0.80913846  0.76934901  0.06808518     0.88600
H4052       H  0.81754377  0.67377939  0.99374612    -0.05600
O4053       O  0.79307382  0.71528315  0.45230946    -0.74600
Mg4054     Mg  0.85917267  0.73573112  0.04453923     1.58000
H4055       H  0.81490017  0.73972665  0.42426951    -0.05600
C4056       C  0.87926824  0.83068509  0.46181868     0.93500
O4057       O  0.87964505  0.81085941  0.05707431    -0.81900
C4058       C  0.88111919  0.79454915  0.07863691     0.93600
O4059       O  0.74693217  0.80510696  0.42851733    -0.81800
Mg4060     Mg  0.76294365  0.70150554  0.98858317     1.58200
O4061       O  0.87676894  0.82333849  0.98782306    -0.80200
O4062       O  0.75451974  0.67891578  0.06318094    -0.81900
N4063       N  0.72814311  0.69635465  0.40614409    -0.02600
C4064       C  0.74873967  0.70196599  0.38661132     0.00000
C4065       C  0.75566111  0.67813862  0.37128380    -0.22900
C4066       C  0.73833904  0.65692868  0.38079756    -0.23100
C4067       C  0.72087106  0.66841402  0.40160130    -0.00100
H4068       H  0.77080337  0.67674340  0.35405698     0.13700
H4069       H  0.73754621  0.63568931  0.37210943     0.13700
N4070       N  0.85914732  0.65120190  0.08094230    -0.02600
C4071       C  0.85201927  0.63098147  0.06160677     0.00000
C4072       C  0.87289083  0.61084022  0.05915398    -0.22900
C4073       C  0.89370136  0.61831711  0.07781771    -0.23100
C4074       C  0.88487631  0.64291143  0.09171255    -0.00100
H4075       H  0.87272070  0.59227204  0.04562947     0.13700
H4076       H  0.91307566  0.60637979  0.08060510     0.13700
N4077       N  0.90764954  0.83607600  0.45125815    -0.02600
C4078       C  0.93065394  0.82157865  0.46089845     0.00000
C4079       C  0.95532994  0.83080213  0.44853366    -0.22900
C4080       C  0.94770911  0.85144084  0.42990289    -0.23100
C4081       C  0.91822547  0.85380652  0.43073313    -0.00100
H4082       H  0.97666218  0.82332327  0.45267418     0.13700
H4083       H  0.96260571  0.86328856  0.41707382     0.13700
O4084       O  0.52480064  0.70392316  0.06095581    -0.87500
C4085       C  0.55948785  0.78257777  0.06484660     0.88600
Mg4086     Mg  0.50753992  0.69103163  0.02115165     1.58100
O4087       O  0.49664126  0.77358925  0.10290953    -0.87200
O4088       O  0.51643512  0.71098046  0.10637692    -0.74500
C4089       C  0.93118426  0.79897468  0.48211879     0.93600
O4090       O  0.55766751  0.74050625  0.01307794    -0.74300
O4091       O  0.93524798  0.77358383  0.47402711    -0.81800
Mg4092     Mg  0.56616025  0.72109478  0.05741052     1.58000
C4093       C  0.93290559  0.82890650  0.09628316     0.93500
O4094       O  0.57435686  0.69917480  0.10078416    -0.80100
H4095       H  0.97205790  0.75330026  0.13113433    -0.05400
C4096       C  0.49424562  0.80891849  0.02452751     0.88500
O4097       O  0.96256996  0.70075837  0.03994872    -0.74600
O4098       O  0.55014626  0.75983673  0.07422725    -0.87400
O4099       O  0.95691765  0.82396719  0.10760817    -0.80200
C4100       C  0.54780835  0.82429149  0.12752484     0.93700
C4101       C  0.57917951  0.70993866  0.12498752     0.93500
Mg4102     Mg  0.94236979  0.78554871  0.05075182     1.58000
O4103       O  0.93359567  0.80620803  0.00792756    -0.80100
O4104       O  0.95122854  0.76574242  0.09535082    -0.74300
O4105       O  0.55652187  0.79892157  0.12482589    -0.80200
O4106       O  0.58260836  0.68193079  0.03708416    -0.81900
O4107       O  0.95158829  0.70706112  0.48176913    -0.80200
C4108       C  0.97347564  0.76374586  0.11074747     0.88000
O4109       O  0.95558623  0.74632407  0.03234878    -0.87400
O4110       O  0.98416394  0.79961907  0.04699729    -0.87500
O4111       O  0.49332282  0.79462677  0.50158120    -0.74500
Mg4112     Mg  0.53607705  0.75557113  0.11597989     1.58000
O4113       O  0.52181992  0.83066462  0.12505575    -0.81900
H4114       H  0.50412292  0.67548858  0.08495830    -0.05600
O4115       O  0.51204910  0.73289301  0.50731021    -0.87200
H4116       H  0.53580626  0.75214730  0.47772774    -0.05400
H4117       H  0.92671861  0.72186485  0.05186473    -0.05600
C4118       C  0.53500826  0.74222117  0.49839160     0.87900
C4119       C  0.51463736  0.69586529  0.08390849     0.88500
C4120       C  0.94735212  0.72315744  0.04183038     0.88600
H4121       H  0.50430313  0.82954081  0.02445580    -0.05600
O4122       O  0.54518298  0.80548700  0.06652808    -0.74600
Mg4123     Mg  0.97363133  0.75079245  0.49122348     1.58000
H4124       H  0.58020310  0.78297692  0.05494011    -0.05600
C4125       C  0.57685610  0.67843930  0.51110264     0.93500
O4126       O  0.98885707  0.67975153  0.47831505    -0.81900
C4127       C  0.96220122  0.68256435  0.47750649     0.93600
O4128       O  0.57867416  0.73655648  0.12758826    -0.81800
Mg4129     Mg  0.50087251  0.81495621  0.08593078     1.58200
O4130       O  0.55172309  0.68145460  0.50160836    -0.80200
O4131       O  0.93086369  0.82812794  0.06964314    -0.81900
N4132       N  0.90726886  0.82700998  0.11288728    -0.02600
C4133       C  0.88762136  0.80671648  0.10690083     0.00000
C4134       C  0.87121845  0.80086190  0.13032947    -0.22900
C4135       C  0.88037827  0.81858154  0.15145036    -0.23100
C4136       C  0.90215624  0.83517781  0.14035258    -0.00100
H4137       H  0.85350451  0.78627248  0.13149597     0.13700
H4138       H  0.87114744  0.81979417  0.17244331     0.13700
N4139       N  0.57695827  0.69262928  0.15006506    -0.02600
C4140       C  0.55693847  0.69888964  0.16993500     0.00000
C4141       C  0.54828801  0.67473394  0.18387652    -0.22900
C4142       C  0.56404583  0.65284053  0.17305358    -0.23100
C4143       C  0.58224197  0.66409373  0.15266558    -0.00100
H4144       H  0.53274272  0.67329054  0.20075648     0.13700
H4145       H  0.56280026  0.63118254  0.18042445     0.13700
N4146       N  0.94470471  0.65754798  0.48047491    -0.02600
C4147       C  0.95023537  0.63836004  0.50139804     0.00000
C4148       C  0.92609889  0.62347780  0.50839067    -0.22900
C4149       C  0.90495851  0.63306823  0.49092103    -0.23100
C4150       C  0.91667316  0.65357341  0.47324941    -0.00100
H4151       H  0.92443869  0.60634428  0.52357413     0.13700
H4152       H  0.88355814  0.62472820  0.49044639     0.13700
O4153       O  0.80420804  0.56459654  0.99606519    -0.87500
C4154       C  0.73649026  0.61625994  0.00613277     0.88600
Mg4155     Mg  0.80747797  0.53570753  0.46189705     1.58100
O4156       O  0.74039831  0.56017630  0.05395598    -0.87200
O4157       O  0.80540642  0.56447087  0.04275360    -0.74500
C4158       C  0.67916945  0.97951966  0.45745978     0.93600
O4159       O  0.76429078  0.59345870  0.44918658    -0.74300
O4160       O  0.70112231  0.97946065  0.44173118    -0.81800
Mg4161     Mg  0.79370228  0.60737655  0.98560056     1.58000
C4162       C  0.67772349  0.51003115  0.07479442     0.93500
O4163       O  0.82519736  0.62008788  0.02071397    -0.80100
H4164       H  0.76184367  0.53855731  0.08356232    -0.05400
C4165       C  0.69025888  0.55037282  0.48612385     0.88500
O4166       O  0.79252540  0.99959094  0.99118263    -0.74600
O4167       O  0.75876569  0.60451005  0.01393273    -0.87400
O4168       O  0.68505354  0.53605275  0.07491625    -0.80200
C4169       C  0.70777928  0.62672350  0.07736365     0.93700
C4170       C  0.82475866  0.62801694  0.04654422     0.93500
Mg4171     Mg  0.71168768  0.99946629  0.01885297     1.58000
O4172       O  0.68090931  0.98604400  0.98365278    -0.80100
O4173       O  0.74131784  0.01347889  0.05516222    -0.74300
O4174       O  0.73391261  0.62490131  0.07052157    -0.80200
O4175       O  0.82828773  0.61237187  0.45252715    -0.81900
O4176       O  0.76955692  0.98078771  0.43375957    -0.80200
C4177       C  0.74817068  0.53764947  0.06516330     0.88000
O4178       O  0.74587849  0.00193174  0.99012021    -0.87400
O4179       O  0.70131858  0.54224831  0.00861195    -0.87500
O4180       O  0.69997612  0.54331789  0.46188350    -0.74500
Mg4181     Mg  0.76903432  0.59424144  0.05669739     1.58000
O4182       O  0.69182974  0.60494419  0.07695463    -0.81900
H4183       H  0.83361888  0.54321120  0.01801628    -0.05600
O4184       O  0.76493133  0.54672714  0.45070602    -0.87200
H4185       H  0.74353648  0.56830723  0.42105112    -0.05400
H4186       H  0.76667634  0.97159387  0.01132684    -0.05600
C4187       C  0.75731422  0.56925380  0.43936407     0.87900
C4188       C  0.81531829  0.55704160  0.01870183     0.88500
C4189       C  0.76809171  0.99008505  0.99783497     0.88600
H4190       H  0.67225850  0.56458806  0.48713566    -0.05600
O4191       O  0.71205655  0.60697708  0.01321029    -0.74600
Mg4192     Mg  0.73550999  0.51293730  0.44742602     1.58000
H4193       H  0.73783889  0.63452170  0.99230654    -0.05600
C4194       C  0.82921157  0.59710381  0.43030625     0.93500
O4195       O  0.81146747  0.00186215  0.42754152    -0.81900
C4196       C  0.79561260  0.97995227  0.42647957     0.93600
O4197       O  0.80175209  0.62922351  0.06061382    -0.81800
Mg4198     Mg  0.69771704  0.57089891  0.04306229     1.58200
O4199       O  0.82254781  0.57085054  0.43125958    -0.80200
O4200       O  0.67695494  0.99561131  0.05198364    -0.81900
N4201       N  0.83110666  0.61065570  0.40286419    -0.02600
C4202       C  0.81089914  0.60510896  0.38281880     0.00000
C4203       C  0.80811793  0.62727240  0.36421357    -0.22900
C4204       C  0.82727024  0.64734717  0.37243208    -0.23100
C4205       C  0.84198459  0.63687224  0.39586854    -0.00100
H4206       H  0.79409921  0.62840005  0.34605120     0.13700
H4207       H  0.82975623  0.66755786  0.36190525     0.13700
N4208       N  0.69567982  0.65466746  0.08087462    -0.02600
C4209       C  0.70453111  0.67734982  0.06522389     0.00000
C4210       C  0.68652651  0.70000907  0.06836983    -0.22900
C4211       C  0.66567556  0.69145151  0.08654791    -0.23100
C4212       C  0.67097768  0.66325298  0.09373475    -0.00100
H4213       H  0.68899950  0.72099578  0.05935689     0.13700
H4214       H  0.64899747  0.70521272  0.09424162     0.13700
N4215       N  0.65128466  0.97752163  0.44486431    -0.02600
C4216       C  0.62967030  0.99494123  0.45294044     0.00000
C4217       C  0.60808897  0.99481833  0.43336985    -0.22900
C4218       C  0.61620514  0.97658350  0.41237795    -0.23100
C4219       C  0.64302147  0.96622723  0.41935496    -0.00100
H4220       H  0.58796998  0.00585302  0.43485597     0.13700
H4221       H  0.60291708  0.97082700  0.39459386     0.13700
O4222       O  0.81112357  0.75194087  0.31645573    -0.87500
C4223       C  0.79967339  0.81926139  0.36721390     0.88600
Mg4224     Mg  0.84531888  0.74947264  0.28772580     1.58100
O4225       O  0.75278433  0.81459554  0.31051034    -0.87200
O4226       O  0.76447663  0.74959263  0.31539125    -0.74500
C4227       C  0.84921495  0.87672153  0.22921081     0.93600
O4228       O  0.85701394  0.79333729  0.34469689    -0.74300
O4229       O  0.86516648  0.85494425  0.22962025    -0.81800
Mg4230     Mg  0.82148362  0.76295082  0.35915135     1.58000
C4231       C  0.73224053  0.87800841  0.26002661     0.93500
O4232       O  0.78743835  0.73079356  0.37281427    -0.80100
H4233       H  0.72337749  0.79320500  0.28855734    -0.05400
C4234       C  0.82050177  0.86626346  0.30044249     0.88500
O4235       O  0.81569215  0.76347607  0.25141250    -0.74600
O4236       O  0.79205885  0.79673433  0.35586991    -0.87400
O4237       O  0.73179781  0.87008449  0.28585820    -0.80200
C4238       C  0.72777990  0.84709724  0.37627195     0.93700
C4239       C  0.76138206  0.72995566  0.38009300     0.93500
Mg4240     Mg  0.78796458  0.84423365  0.24987811     1.58000
O4241       O  0.82308200  0.87489657  0.23605287    -0.80100
O4242       O  0.75159361  0.81446130  0.26382160    -0.74300
O4243       O  0.73444230  0.82084441  0.37531506    -0.80200
O4244       O  0.85587661  0.72948446  0.36484958    -0.81900
O4245       O  0.87195784  0.78605647  0.23166544    -0.80200
C4246       C  0.74167776  0.80703642  0.28787285     0.88000
O4247       O  0.81660443  0.81017280  0.25262320    -0.87400
O4248       O  0.79822771  0.85451006  0.29264275    -0.87500
O4249       O  0.84493659  0.85698328  0.29336563    -0.74500
Mg4250     Mg  0.74951571  0.78570676  0.34467685     1.58000
O4251       O  0.72870664  0.86236901  0.35405364    -0.81900
H4252       H  0.79033044  0.72159992  0.29524695    -0.05600
O4253       O  0.85568601  0.79225681  0.29796760    -0.87200
H4254       H  0.88473606  0.81460643  0.31944915    -0.05400
H4255       H  0.79516809  0.78855198  0.22301044    -0.05600
C4256       C  0.86673764  0.80038802  0.32045797     0.87900
C4257       C  0.78891206  0.74009089  0.30873944     0.88500
C4258       C  0.80883758  0.78764557  0.24141206     0.88600
H4259       H  0.81915097  0.88452625  0.31426781    -0.05600
O4260       O  0.79269913  0.84346559  0.35739019    -0.74600
Mg4261     Mg  0.85928406  0.82090400  0.26351631     1.58000
H4262       H  0.81344818  0.81831573  0.38552934    -0.05600
C4263       C  0.87783054  0.72953811  0.34912233     0.93500
O4264       O  0.88005434  0.74561354  0.25459403    -0.81900
C4265       C  0.87929042  0.76003552  0.23178470     0.93600
O4266       O  0.74552665  0.75186437  0.37903263    -0.81800
Mg4267     Mg  0.76329005  0.85737695  0.32097492     1.58200
O4268       O  0.87609445  0.73605738  0.32292821    -0.80200
O4269       O  0.75524804  0.87921222  0.24595876    -0.81900
N4270       N  0.86131294  0.90466658  0.22570393    -0.02600
C4271       C  0.85246512  0.92734403  0.24136410     0.00000
C4272       C  0.87047838  0.94999901  0.23823555    -0.22900
C4273       C  0.89132954  0.94144517  0.22005619    -0.23100
C4274       C  0.88601907  0.91325231  0.21285163    -0.00100
H4275       H  0.86801110  0.97098149  0.24726089     0.13700
H4276       H  0.90801336  0.95520588  0.21237391     0.13700
N4277       N  0.72588137  0.86064382  0.40371658    -0.02600
C4278       C  0.74608721  0.85509856  0.42376425     0.00000
C4279       C  0.74885845  0.87725815  0.44237639    -0.22900
C4280       C  0.72970198  0.89732843  0.43416002    -0.23100
C4281       C  0.71499512  0.88685482  0.41071740    -0.00100
H4282       H  0.76287380  0.87838647  0.46054129     0.13700
H4283       H  0.72720992  0.91753612  0.44469157     0.13700
N4284       N  0.90571328  0.72753642  0.36172040    -0.02600
C4285       C  0.92733132  0.74495229  0.35364518     0.00000
C4286       C  0.94890532  0.74483737  0.37322342    -0.22900
C4287       C  0.94078156  0.72661007  0.39421828    -0.23100
C4288       C  0.91396769  0.71624890  0.38723507    -0.00100
H4289       H  0.96902472  0.75587236  0.37174097     0.13700
H4290       H  0.95406525  0.72086132  0.41200785     0.13700
O4291       O  0.74021043  0.49690703  0.24993708    -0.87500
C4292       C  0.68944243  0.50836314  0.31804361     0.88600
Mg4293     Mg  0.76958586  0.96351118  0.24723263     1.58100
O4294       O  0.74509501  0.55683762  0.31365261    -0.87200
O4295       O  0.74119074  0.54356886  0.24843312    -0.74500
C4296       C  0.82807771  0.96129984  0.37358546     0.93600
O4297       O  0.71291742  0.95095158  0.29254362    -0.74300
O4298       O  0.82810143  0.94718529  0.35071135    -0.81800
Mg4299     Mg  0.69782337  0.48572907  0.26203740     1.58000
C4300       C  0.79575399  0.57800123  0.37801942     0.93500
O4301       O  0.68314325  0.51856677  0.22923810    -0.80100
H4302       H  0.76628645  0.58725424  0.29289541    -0.05400
C4303       C  0.75627211  0.98926544  0.36424947     0.88500
O4304       O  0.80525045  0.49425705  0.26114744    -0.74600
O4305       O  0.70089242  0.51573049  0.29547009    -0.87400
O4306       O  0.76975239  0.57859821  0.37011225    -0.80200
C4307       C  0.67772369  0.58067599  0.34476787     0.93700
C4308       C  0.67588398  0.54455027  0.22793709     0.93500
Mg4309     Mg  0.80652176  0.52277945  0.34271229     1.58000
O4310       O  0.82115054  0.48747468  0.37341912    -0.80100
O4311       O  0.79178013  0.55932411  0.31359410    -0.74300
O4312       O  0.68022648  0.57333455  0.31876190    -0.80200
O4313       O  0.69274071  0.95054861  0.22971313    -0.81900
O4314       O  0.82628579  0.93887650  0.28280993    -0.80200
C4315       C  0.76745189  0.56872308  0.30635475     0.88000
O4316       O  0.80367844  0.49444853  0.30782714    -0.87400
O4317       O  0.76386005  0.51208465  0.35344642    -0.87500
O4318       O  0.76393320  0.96528416  0.35427841    -0.74500
Mg4319     Mg  0.71130468  0.55826250  0.28407484     1.58000
O4320       O  0.69896432  0.57990757  0.36154868    -0.81900
H4321       H  0.76153154  0.51830743  0.22009144    -0.05600
O4322       O  0.75948680  0.95344834  0.28996062    -0.87200
H4323       H  0.73944760  0.92378391  0.31284233    -0.05400
H4324       H  0.83260008  0.51658244  0.28590430    -0.05600
C4325       C  0.73755608  0.94173780  0.29868461     0.87900
C4326       C  0.74786600  0.51934796  0.23850491     0.88500
C4327       C  0.81471750  0.50221200  0.28520774     0.88600
H4328       H  0.74211033  0.98972832  0.38232061    -0.05600
O4329       O  0.69885298  0.51604968  0.34220662    -0.74600
Mg4330     Mg  0.79405671  0.95150811  0.31800010     1.58000
H4331       H  0.67135745  0.49424496  0.31720190    -0.05600
C4332       C  0.70943867  0.92938490  0.22807521     0.93500
O4333       O  0.80247508  0.92890821  0.24340359    -0.81900
C4334       C  0.82558878  0.93037326  0.25712277     0.93600
O4335       O  0.67735843  0.56086093  0.24950065    -0.81800
Mg4336     Mg  0.73447397  0.54640805  0.35653787     1.58200
O4337       O  0.73572743  0.93189958  0.23370242    -0.80200
O4338       O  0.81006838  0.55511768  0.37805723    -0.81900
N4339       N  0.69784844  0.90119211  0.22563473    -0.02600
C4340       C  0.70498402  0.88096384  0.24495795     0.00000
C4341       C  0.68413181  0.86079945  0.24738158    -0.22900
C4342       C  0.66332468  0.86827027  0.22871293    -0.23100
C4343       C  0.67213126  0.89288661  0.21484485    -0.00100
H4344       H  0.68431393  0.84221902  0.26088870     0.13700
H4345       H  0.64396627  0.85631162  0.22590585     0.13700
N4346       N  0.64934191  0.58607491  0.35532219    -0.02600
C4347       C  0.62633429  0.57158994  0.34567139     0.00000
C4348       C  0.60165712  0.58083045  0.35802204    -0.22900
C4349       C  0.60928156  0.60146587  0.37665692    -0.23100
C4350       C  0.63876671  0.60381311  0.37584051    -0.00100
H4351       H  0.58032235  0.57336366  0.35387118     0.13700
H4352       H  0.59438799  0.61332378  0.38948043     0.13700
N4353       N  0.82885696  0.94635692  0.40042870    -0.02600
C4354       C  0.80825361  0.95196343  0.41995552     0.00000
C4355       C  0.80132202  0.92813100  0.43527053    -0.22900
C4356       C  0.81864642  0.90692299  0.42575696    -0.23100
C4357       C  0.83612383  0.91841409  0.40496504    -0.00100
H4358       H  0.78617236  0.92673122  0.45249013     0.13700
H4359       H  0.81943536  0.88568094  0.43443828     0.13700
C4360       C  0.65184785  0.64904822  0.44082599     0.04000
C4361       C  0.67916706  0.65973454  0.43507444    -0.12100
C4362       C  0.69342264  0.65401506  0.40959579     0.01500
C4363       C  0.68023447  0.63523938  0.39014527    -0.10700
C4364       C  0.65424163  0.62210297  0.39655332     0.04000
C4365       C  0.64039884  0.62922524  0.42222417    -0.10100
H4366       H  0.68843352  0.67335186  0.45043715     0.09600
H4367       H  0.68928636  0.63209725  0.36933428     0.07100
H4368       H  0.61976852  0.62068467  0.42705639     0.07000
C4369       C  0.90275293  0.87210359  0.91002382     0.04000
C4370       C  0.87676045  0.88524252  0.91643079    -0.12100
C4371       C  0.86357402  0.90401623  0.89697760     0.01500
C4372       C  0.87782977  0.90973195  0.87149901    -0.10700
C4373       C  0.90514945  0.89904780  0.86575065     0.04000
C4374       C  0.91659669  0.87922579  0.88435299    -0.10100
H4375       H  0.86770541  0.88210233  0.93724074     0.09600
H4376       H  0.86856202  0.92334257  0.85613261     0.07100
H4377       H  0.93722516  0.87068408  0.87951833     0.07000
C4378       C  0.65664617  0.90477712  0.68950546     0.04000
C4379       C  0.66519994  0.92965776  0.67539434    -0.12100
C4380       C  0.65044448  0.94051339  0.65155635     0.01500
C4381       C  0.62729798  0.92475048  0.64152305    -0.10700
C4382       C  0.61943248  0.89856283  0.65376773     0.04000
C4383       C  0.63433064  0.88895427  0.67741874    -0.10100
H4384       H  0.68453198  0.93945005  0.68174583     0.09600
H4385       H  0.61637310  0.93177536  0.62299266     0.07100
H4386       H  0.62991477  0.86789219  0.68481671     0.07000
C4387       C  0.91264134  0.86136296  0.65544112     0.04000
C4388       C  0.93857005  0.87458827  0.64880477    -0.12100
C4389       C  0.94859158  0.89844595  0.66398476     0.01500
C4390       C  0.93210081  0.90819737  0.68669574    -0.10700
C4391       C  0.90476380  0.89737395  0.69242503     0.04000
C4392       C  0.89520531  0.87422500  0.67632601    -0.10100
H4393       H  0.95053456  0.86708405  0.63115013     0.09600
H4394       H  0.94000345  0.92500227  0.69959055     0.07100
H4395       H  0.87361016  0.86712211  0.67898408     0.07000
C4396       C  0.60839946  0.64844051  0.64259088     0.04000
C4397       C  0.61841542  0.62457485  0.65776228    -0.12100
C4398       C  0.64434458  0.61134969  0.65112617     0.01500
C4399       C  0.66178264  0.62421466  0.63024505    -0.10700
C4400       C  0.65222814  0.64736844  0.61415196     0.04000
C4401       C  0.62489244  0.65819421  0.61988271    -0.10100
H4402       H  0.60644844  0.61706477  0.67541214     0.09600
H4403       H  0.68337791  0.61711190  0.62758789     0.07100
H4404       H  0.61699524  0.67500485  0.60699427     0.07000
C4405       C  0.93757097  0.64856115  0.65279453     0.04000
C4406       C  0.92971794  0.67475414  0.66503956    -0.12100
C4407       C  0.90657547  0.69052439  0.65501123     0.01500
C4408       C  0.89181284  0.67967529  0.63117237    -0.10700
C4409       C  0.90035944  0.65479092  0.61705917     0.04000
C4410       C  0.92266538  0.63895710  0.62914547    -0.10100
H4411       H  0.94065042  0.68177708  0.68356644     0.09600
H4412       H  0.87249621  0.68946850  0.62482687     0.07100
H4413       H  0.92706792  0.61789137  0.62174828     0.07000
C4414       C  0.89967151  0.69345839  0.90436490     0.04000
C4415       C  0.90970163  0.68742405  0.93183516    -0.12100
C4416       C  0.90206603  0.66259545  0.94620588     0.01500
C4417       C  0.88074796  0.64516278  0.93387748    -0.10700
C4418       C  0.86715478  0.65267537  0.90830284     0.04000
C4419       C  0.87884922  0.67567219  0.89283656    -0.10100
H4420       H  0.92418288  0.70185782  0.94153222     0.09600
H4421       H  0.87579585  0.62520844  0.94360294     0.07100
H4422       H  0.87286384  0.67896592  0.87109118     0.07000
C4423       C  0.65492943  0.91259124  0.86036846     0.04000
C4424       C  0.67624268  0.89515300  0.87269601    -0.12100
C4425       C  0.68982673  0.90265589  0.89827993     0.01500
C4426       C  0.67812760  0.92564624  0.91375177    -0.10700
C4427       C  0.65731507  0.94343924  0.90222184     0.04000
C4428       C  0.64729238  0.93741617  0.87474629    -0.10100
H4429       H  0.68119754  0.87520348  0.86296150     0.09600
H4430       H  0.68410348  0.92893283  0.93550094     0.07100
H4431       H  0.63281860  0.95185530  0.86505214     0.07000
O4432       O  0.99998534  0.56502342  0.56148937    -0.87500
C4433       C  0.56817696  0.61585849  0.55049650     0.88600
Mg4434     Mg  0.99782195  0.53468102  0.59458462     1.58100
O4435       O  0.56330981  0.56040223  0.00197712    -0.87200
O4436       O  0.99818521  0.56521940  0.01479091    -0.74500
C4437       C  0.62626875  0.97818558  0.59700866     0.93600
O4438       O  0.54180820  0.59204415  0.60776685    -0.74300
O4439       O  0.60462482  0.97912876  0.61306497    -0.81800
Mg4440     Mg  0.01154501  0.60751213  0.57288156     1.58000
C4441       C  0.62663702  0.00998903  0.98017627     0.93500
O4442       O  0.97932499  0.62300580  0.53945390    -0.80100
H4443       H  0.54138405  0.53874166  0.97274371    -0.05400
C4444       C  0.61469414  0.54991207  0.56889193     0.88500
O4445       O  0.01254760  0.99961561  0.56401074    -0.74600
O4446       O  0.54548294  0.60467443  0.54305112    -0.87400
O4447       O  0.61877429  0.53587033  0.97987135    -0.80200
C4448       C  0.59625365  0.62700399  0.97828404     0.93700
C4449       C  0.97839999  0.63088490  0.01358511     0.93500
Mg4450     Mg  0.59315968  0.99901820  0.53615702     1.58000
O4451       O  0.62433977  0.98460125  0.57078517    -0.80100
O4452       O  0.56295209  0.01366587  0.00038588    -0.74300
O4453       O  0.57009636  0.62562141  0.98568310    -0.80200
O4454       O  0.97828669  0.61239986  0.60794265    -0.81900
O4455       O  0.53725064  0.97929270  0.62218330    -0.80200
C4456       C  0.55549107  0.53785684  0.99081285     0.88000
O4457       O  0.55927848  0.00103672  0.56524946    -0.87400
O4458       O  0.60344031  0.54180217  0.54651003    -0.87500
O4459       O  0.60527190  0.54271440  0.59318821    -0.74500
Mg4460     Mg  0.53437221  0.59477283  0.00026600     1.58000
O4461       O  0.61170640  0.60486464  0.97794980    -0.81900
H4462       H  0.96988294  0.54440838  0.53977168    -0.05600
O4463       O  0.54055164  0.54538640  0.60533225    -0.87200
H4464       H  0.56310642  0.56609618  0.63469978    -0.05400
H4465       H  0.53793624  0.97172502  0.54317671    -0.05600
C4466       C  0.54871110  0.56758317  0.61689881     0.87900
C4467       C  0.98840228  0.55793421  0.53893521     0.88500
C4468       C  0.53683514  0.98981927  0.55722917     0.88600
H4469       H  0.63256265  0.56428371  0.56774486    -0.05600
O4470       O  0.59230537  0.60649586  0.54246651    -0.74600
Mg4471     Mg  0.57020394  0.01198529  0.60789389     1.58000
H4472       H  0.56747402  0.63371938  0.56486951    -0.05600
C4473       C  0.97677927  0.59552361  0.62898089     0.93500
O4474       O  0.99445238  0.99868860  0.62745604    -0.81900
C4475       C  0.01123519  0.97744164  0.62924117     0.93600
O4476       O  0.00015267  0.62926901  0.99746469    -0.81800
Mg4477     Mg  0.60630254  0.57071144  0.01204076     1.58200
O4478       O  0.98306629  0.56920421  0.62635968    -0.80200
O4479       O  0.62782076  0.99576675  0.00305558    -0.81900
N4480       N  0.60908219  0.65478645  0.97522153    -0.02600
C4481       C  0.60064140  0.67726861  0.99119742     0.00000
C4482       C  0.61892876  0.69977599  0.98881328    -0.22900
C4483       C  0.63977276  0.69138941  0.97072274    -0.23100
C4484       C  0.63406584  0.66348218  0.96285571    -0.00100
H4485       H  0.61725921  0.72017902  0.99923548     0.13700
H4486       H  0.65685114  0.70497838  0.96359130     0.13700
N4487       N  0.97269946  0.60662396  0.65732799    -0.02600
C4488       C  0.98836467  0.59717671  0.67949268     0.00000
C4489       C  0.98401359  0.61307277  0.70345416    -0.22900
C4490       C  0.96497946  0.63354504  0.69620556    -0.23100
C4491       C  0.95857277  0.62996356  0.66758179    -0.00100
H4492       H  0.99379235  0.61016223  0.72402567     0.13700
H4493       H  0.95659534  0.64898481  0.71093641     0.13700
N4494       N  0.65420108  0.97602943  0.60948251    -0.02600
C4495       C  0.67446529  0.99535000  0.60229235     0.00000
C4496       C  0.69394244  0.99872532  0.62363465    -0.22900
C4497       C  0.68604773  0.98069283  0.64486784    -0.23100
C4498       C  0.66180204  0.96622994  0.63592907    -0.00100
H4499       H  0.71240018  0.01243370  0.62350923     0.13700
H4500       H  0.69771041  0.97853167  0.66444471     0.13700
O4501       O  0.49369959  0.81041153  0.80459997    -0.87500
C4502       C  0.94231174  0.79991069  0.73768928     0.88600
Mg4503     Mg  0.52263383  0.84478572  0.80630467     1.58100
O4504       O  0.49773385  0.75104717  0.74132738    -0.87200
O4505       O  0.49406543  0.76367520  0.80619033    -0.74500
C4506       C  0.58020793  0.84554229  0.67758061     0.93600
O4507       O  0.96469108  0.85649920  0.76411278    -0.74300
O4508       O  0.57869072  0.86242314  0.69861493    -0.81800
Mg4509     Mg  0.95070401  0.82071355  0.79453879     1.58000
C4510       C  0.54577293  0.72745407  0.67733763     0.93500
O4511       O  0.93823504  0.78587408  0.82670819    -0.80100
H4512       H  0.51908471  0.72174245  0.76339916    -0.05400
C4513       C  0.50827747  0.81759174  0.68967302     0.88500
O4514       O  0.55882118  0.81523907  0.79177083    -0.74600
O4515       O  0.95356925  0.79180380  0.76007001    -0.87400
O4516       O  0.51975812  0.72930244  0.68439692    -0.80200
C4517       C  0.93074656  0.72818260  0.70957504     0.93700
C4518       C  0.93037381  0.75999216  0.82640635     0.93500
Mg4519     Mg  0.55917901  0.78470081  0.71198139     1.58000
O4520       O  0.57392805  0.81922160  0.68020455    -0.80100
O4521       O  0.54446481  0.74963620  0.74255943    -0.74300
O4522       O  0.93267257  0.73460110  0.73579824    -0.80200
O4523       O  0.94529765  0.85486652  0.82862942    -0.81900
O4524       O  0.57767179  0.87302811  0.76710236    -0.80200
C4525       C  0.52018031  0.73983541  0.74934533     0.88000
O4526       O  0.55701231  0.81504501  0.74507292    -0.87400
O4527       O  0.51644634  0.79539719  0.70123636    -0.87500
O4528       O  0.51517368  0.84205491  0.69880584    -0.74500
Mg4529     Mg  0.96385541  0.74902191  0.77042309     1.58000
O4530       O  0.95239264  0.72912216  0.69352194    -0.81900
H4531       H  0.51563369  0.78875579  0.83382933    -0.05600
O4532       O  0.51151346  0.85468670  0.76352217    -0.87200
H4533       H  0.98951483  0.88372693  0.74170750    -0.05400
H4534       H  0.58712269  0.79443601  0.76678294    -0.05600
C4535       C  0.98881670  0.86586654  0.75608030     0.87900
C4536       C  0.50152382  0.78786784  0.81576265     0.88500
C4537       C  0.56860120  0.80795775  0.76762415     0.88600
H4538       H  0.49387892  0.81610044  0.67187509    -0.05600
O4539       O  0.95173087  0.79271212  0.71339186    -0.74600
Mg4540     Mg  0.54544310  0.85753025  0.73368361     1.58000
H4541       H  0.92444198  0.81428035  0.73883836    -0.05600
C4542       C  0.96074937  0.87700696  0.82829749     0.93500
O4543       O  0.55685287  0.87928448  0.80909714    -0.81900
C4544       C  0.57860224  0.88090405  0.79297221     0.93600
O4545       O  0.92919741  0.74576392  0.80352961    -0.81800
Mg4546     Mg  0.48680196  0.76198890  0.69868399     1.58200
O4547       O  0.48690684  0.87562711  0.82089763    -0.80200
O4548       O  0.56255236  0.74870476  0.67911502    -0.81900
N4549       N  0.90281662  0.72603172  0.69709587    -0.02600
C4550       C  0.88255687  0.74535883  0.70428324     0.00000
C4551       C  0.86309554  0.74875229  0.68292983    -0.22900
C4552       C  0.87099436  0.73072526  0.66169208    -0.23100
C4553       C  0.89522602  0.71624586  0.67064049    -0.00100
H4554       H  0.84464502  0.76247027  0.68304906     0.13700
H4555       H  0.85934650  0.72858008  0.64210974     0.13700
N4556       N  0.58429238  0.85663765  0.64923333    -0.02600
C4557       C  0.56862665  0.84719018  0.62706977     0.00000
C4558       C  0.57297982  0.86308344  0.60310718    -0.22900
C4559       C  0.59201805  0.88355374  0.61035512    -0.23100
C4560       C  0.59842395  0.87997309  0.63897921    -0.00100
H4561       H  0.56320168  0.86017134  0.58253555     0.13700
H4562       H  0.60040597  0.89899056  0.59562365     0.13700
N4563       N  0.94791852  0.90478811  0.83136001    -0.02600
C4564       C  0.95635710  0.92726881  0.81538188     0.00000
C4565       C  0.93806592  0.94977317  0.81776032    -0.22900
C4566       C  0.91722146  0.94138620  0.83584987    -0.23100
C4567       C  0.92293200  0.91348139  0.84372153    -0.00100
H4568       H  0.93973295  0.97017439  0.80733435     0.13700
H4569       H  0.90013974  0.95497324  0.84297691     0.13700
O4570       O  0.60141066  0.49631792  0.77423268    -0.87500
C4571       C  0.52199125  0.49221448  0.80819099     0.88600
Mg4572     Mg  0.61462568  0.53554013  0.75582490     1.59700
O4573       O  0.53219971  0.95391375  0.74562627    -0.87200
O4574       O  0.59443037  0.95075060  0.76663661    -0.74500
C4575       C  0.00918594  0.57427989  0.67904155     0.93600
O4576       O  0.56367143  0.54462299  0.80499263    -0.74300
O4577       O  0.53517351  0.58065693  0.68151593    -0.81800
Mg4578     Mg  0.58336503  0.50079275  0.81535758     1.58000
C4579       C  0.97781977  0.95993442  0.68159211     0.93500
O4580       O  0.60540984  0.95706644  0.82481599    -0.80100
H4581       H  0.55287809  0.92547958  0.72162316    -0.05400
C4582       C  0.99751178  0.53257009  0.74172958     0.88500
O4583       O  0.60576834  0.51572742  0.71122822    -0.74600
O4584       O  0.54495035  0.98288743  0.79927191    -0.87400
O4585       O  0.98264357  0.94917113  0.70579519    -0.80200
C4586       C  0.98014306  0.92843826  0.79547801     0.93700
C4587       C  0.59479877  0.93256842  0.82907583     0.93500
Mg4588     Mg  0.52092174  0.50556089  0.69059756     1.58000
O4589       O  0.00047509  0.54890945  0.68174513    -0.80100
O4590       O  0.54056382  0.96097005  0.70020477    -0.74300
O4591       O  0.50527598  0.93145139  0.80497358    -0.80200
O4592       O  0.62174523  0.52359065  0.83255349    -0.81900
O4593       O  0.60007809  0.57395554  0.69896472    -0.80200
C4594       C  0.54236288  0.94585584  0.72267332     0.88000
O4595       O  0.56035731  0.52357925  0.70366392    -0.87400
O4596       O  0.00685665  0.50982933  0.73235197    -0.87500
O4597       O  0.51181366  0.55548095  0.74004486    -0.74500
Mg4598     Mg  0.54945995  0.94102566  0.78543226     1.58000
O4599       O  0.97439208  0.93192748  0.76949609    -0.81900
H4600       H  0.63028172  0.97185831  0.75472197    -0.05600
O4601       O  0.57283132  0.54961030  0.75957594    -0.87200
H4602       H  0.55268989  0.57953288  0.78211450    -0.05400
H4603       H  0.58494055  0.50328256  0.67544403    -0.05600
C4604       C  0.56274855  0.55891156  0.78204485     0.87900
C4605       C  0.60964712  0.97315059  0.76475432     0.88500
C4606       C  0.58352241  0.51373181  0.69582958     0.88600
H4607       H  0.97679633  0.53296759  0.75163573    -0.05600
O4608       O  0.99933266  0.49050054  0.79350358    -0.74600
Mg4609     Mg  0.55612378  0.56494722  0.72064171     1.58000
H4610       H  0.52119281  0.50213919  0.82885594    -0.05600
C4611       C  0.62580513  0.54898018  0.82445671     0.93500
O4612       O  0.62613359  0.57811623  0.73692923    -0.81900
C4613       C  0.62409035  0.57889546  0.71028932     0.93600
O4614       O  0.56814290  0.92975374  0.82827109    -0.81800
Mg4615     Mg  0.99084135  0.97108920  0.74916985     1.58200
O4616       O  0.62339503  0.55620668  0.79864637    -0.80200
O4617       O  0.97832429  0.98655153  0.67899130    -0.81900
N4618       N  0.61229628  0.90755536  0.82609300    -0.02600
C4619       C  0.60676892  0.88838184  0.80515524     0.00000
C4620       C  0.63090891  0.87350953  0.79815203    -0.22900
C4621       C  0.65204679  0.88309016  0.81563219    -0.23100
C4622       C  0.64032760  0.90358142  0.83331743    -0.00100
H4623       H  0.63257249  0.85638623  0.78295676     0.13700
H4624       H  0.67344788  0.87475238  0.81610507     0.13700
N4625       N  0.64972646  0.57700364  0.69368393    -0.02600
C4626       C  0.66937965  0.55671627  0.69967200     0.00000
C4627       C  0.68577836  0.55085869  0.67624069    -0.22900
C4628       C  0.67661056  0.56857077  0.65511734    -0.23100
C4629       C  0.65483167  0.58516558  0.66621552    -0.00100
H4630       H  0.70349326  0.53627084  0.67507277     0.13700
H4631       H  0.68583706  0.56978043  0.63412236     0.13700
N4632       N  0.98004251  0.94262501  0.65651506    -0.02600
C4633       C  0.00007264  0.94887799  0.63665327     0.00000
C4634       C  0.00872953  0.92471635  0.62272485    -0.22900
C4635       C  0.99296329  0.90282774  0.63354631    -0.23100
C4636       C  0.97475747  0.91408996  0.65392023    -0.00100
H4637       H  0.02428235  0.92326611  0.60585256     0.13700
H4638       H  0.99420762  0.88116685  0.62618283     0.13700
O4639       O  0.81189829  0.80683985  0.49293629    -0.87500
C4640       C  0.80073499  0.73926438  0.94233817     0.88600
Mg4641     Mg  0.84569249  0.80826476  0.52251070     1.58100
O4642       O  0.75332053  0.74444653  0.49875286    -0.87200
O4643       O  0.76521313  0.80932153  0.49298859    -0.74500
C4644       C  0.84755457  0.67939272  0.57850645     0.93600
O4645       O  0.85814835  0.76606228  0.96437449    -0.74300
O4646       O  0.86425290  0.70055587  0.57686187    -0.81800
Mg4647     Mg  0.82252186  0.79641535  0.95004910     1.58000
C4648       C  0.73140586  0.68037864  0.54946214     0.93500
O4649       O  0.78723859  0.82859929  0.93647579    -0.80100
H4650       H  0.72440057  0.76658440  0.52067375    -0.05400
C4651       C  0.81943788  0.69173581  0.50790112     0.88500
O4652       O  0.81581254  0.79357067  0.55815866    -0.74600
O4653       O  0.79314259  0.76208424  0.95313767    -0.87400
O4654       O  0.73070833  0.68887738  0.52377337    -0.80200
C4655       C  0.72892931  0.71129229  0.93299039     0.93700
C4656       C  0.76123946  0.82799499  0.92856114     0.93500
Mg4657     Mg  0.78741010  0.71351648  0.55935198     1.58000
O4658       O  0.82126469  0.68190531  0.57288513    -0.80100
O4659       O  0.75174886  0.74426185  0.54543283    -0.74300
O4660       O  0.73585614  0.73746722  0.93316040    -0.80200
O4661       O  0.85802369  0.82992399  0.94504264    -0.81900
O4662       O  0.87385782  0.76856636  0.57733633    -0.80200
C4663       C  0.74228212  0.75221338  0.52137166     0.88000
O4664       O  0.81678840  0.74690955  0.55664633    -0.87400
O4665       O  0.79750887  0.70344851  0.51662576    -0.87500
O4666       O  0.84407734  0.70095156  0.51403610    -0.74500
Mg4667     Mg  0.75047885  0.77277424  0.96386673     1.58000
O4668       O  0.72890788  0.69717407  0.95586198    -0.81900
H4669       H  0.79070161  0.83725109  0.51369661    -0.05600
O4670       O  0.85610088  0.76573326  0.51110969    -0.87200
H4671       H  0.88564201  0.74425579  0.98937837    -0.05400
H4672       H  0.79547881  0.76830664  0.58650291    -0.05600
C4673       C  0.86755553  0.75837145  0.98853685     0.87900
C4674       C  0.78953954  0.81872165  0.50023401     0.88500
C4675       C  0.80913843  0.76934902  0.56808520     0.88600
H4676       H  0.81754379  0.67377940  0.49374619    -0.05600
O4677       O  0.79307386  0.71528313  0.95230943    -0.74600
Mg4678     Mg  0.85917268  0.73573114  0.54453924     1.58000
H4679       H  0.81490028  0.73972668  0.92426943    -0.05600
C4680       C  0.87926825  0.83068508  0.96181865     0.93500
O4681       O  0.87964504  0.81085945  0.55707433    -0.81900
C4682       C  0.88111919  0.79454917  0.57863692     0.93600
O4683       O  0.74693219  0.80510695  0.92851731    -0.81800
Mg4684     Mg  0.76294364  0.70150556  0.48858318     1.58200
O4685       O  0.87676892  0.82333852  0.48782309    -0.80200
O4686       O  0.75451970  0.67891579  0.56318098    -0.81900
N4687       N  0.72814310  0.69635466  0.90614407    -0.02600
C4688       C  0.74873964  0.70196600  0.88661128     0.00000
C4689       C  0.75566114  0.67813863  0.87128375    -0.22900
C4690       C  0.73833907  0.65692870  0.88079756    -0.23100
C4691       C  0.72087107  0.66841402  0.90160130    -0.00100
H4692       H  0.77080336  0.67674341  0.85405706     0.13700
H4693       H  0.73754626  0.63568927  0.87210946     0.13700
N4694       N  0.85914736  0.65120190  0.58094233    -0.02600
C4695       C  0.85201931  0.63098146  0.56160681     0.00000
C4696       C  0.87289089  0.61084022  0.55915401    -0.22900
C4697       C  0.89370143  0.61831714  0.57781772    -0.23100
C4698       C  0.88487636  0.64291145  0.59171256    -0.00100
H4699       H  0.87272077  0.59227206  0.54562950     0.13700
H4700       H  0.91307575  0.60637986  0.58060510     0.13700
N4701       N  0.90764954  0.83607598  0.95125811    -0.02600
C4702       C  0.93065394  0.82157865  0.96089845     0.00000
C4703       C  0.95532991  0.83080213  0.94853366    -0.22900
C4704       C  0.94770910  0.85144078  0.92990287    -0.23100
C4705       C  0.91822549  0.85380648  0.93073308    -0.00100
H4706       H  0.97666227  0.82332323  0.95267425     0.13700
H4707       H  0.96260576  0.86328855  0.91707373     0.13700
O4708       O  0.52480066  0.70392317  0.56095579    -0.87500
C4709       C  0.55948786  0.78257778  0.56484661     0.88600
Mg4710     Mg  0.50753994  0.69103164  0.52115162     1.58100
O4711       O  0.49664124  0.77358922  0.60290951    -0.87200
O4712       O  0.51643512  0.71098044  0.60637689    -0.74500
C4713       C  0.93118426  0.79897467  0.98211878     0.93600
O4714       O  0.55766753  0.74050628  0.51307792    -0.74300
O4715       O  0.93524798  0.77358383  0.97402709    -0.81800
Mg4716     Mg  0.56616027  0.72109480  0.55741051     1.58000
C4717       C  0.93290560  0.82890648  0.59628317     0.93500
O4718       O  0.57435687  0.69917480  0.60078415    -0.80100
H4719       H  0.97205794  0.75330008  0.63113446    -0.05400
C4720       C  0.49424562  0.80891851  0.52452751     0.88500
O4721       O  0.96256993  0.70075836  0.53994865    -0.74600
O4722       O  0.55014625  0.75983674  0.57422724    -0.87400
O4723       O  0.95691766  0.82396718  0.60760819    -0.80200
C4724       C  0.54780832  0.82429148  0.62752483     0.93700
C4725       C  0.57917949  0.70993866  0.62498752     0.93500
Mg4726     Mg  0.94236981  0.78554871  0.55075182     1.58000
O4727       O  0.93359567  0.80620805  0.50792757    -0.80100
O4728       O  0.95122855  0.76574237  0.59535081    -0.74300
O4729       O  0.55652184  0.79892156  0.62482587    -0.80200
O4730       O  0.58260837  0.68193081  0.53708414    -0.81900
O4731       O  0.95158831  0.70706114  0.98176917    -0.80200
C4732       C  0.97347566  0.76374584  0.61074741     0.88000
O4733       O  0.95558624  0.74632408  0.53234875    -0.87400
O4734       O  0.98416396  0.79961911  0.54699731    -0.87500
O4735       O  0.49332278  0.79462677  0.00158120    -0.74500
Mg4736     Mg  0.53607703  0.75557112  0.61597987     1.58000
O4737       O  0.52181989  0.83066460  0.62505577    -0.81900
H4738       H  0.50412291  0.67548851  0.58495824    -0.05600
O4739       O  0.51204907  0.73289300  0.00731023    -0.87200
H4740       H  0.53580625  0.75214727  0.97772773    -0.05400
H4741       H  0.92671873  0.72186487  0.55186459    -0.05600
C4742       C  0.53500824  0.74222115  0.99839162     0.87900
C4743       C  0.51463739  0.69586531  0.58390845     0.88500
C4744       C  0.94735206  0.72315744  0.54183034     0.88600
H4745       H  0.50430310  0.82954082  0.52445580    -0.05600
O4746       O  0.54518300  0.80548701  0.56652811    -0.74600
Mg4747     Mg  0.97363134  0.75079244  0.99122349     1.58000
H4748       H  0.58020308  0.78297693  0.55494014    -0.05600
C4749       C  0.57685609  0.67843927  0.01110267     0.93500
O4750       O  0.98885709  0.67975156  0.97831505    -0.81900
C4751       C  0.96220124  0.68256437  0.97750651     0.93600
O4752       O  0.57867414  0.73655648  0.62758826    -0.81800
Mg4753     Mg  0.50087250  0.81495621  0.58593079     1.58200
O4754       O  0.55172308  0.68145458  0.00160839    -0.80200
O4755       O  0.93086371  0.82812793  0.56964315    -0.81900
N4756       N  0.90726886  0.82700997  0.61288729    -0.02600
C4757       C  0.88762136  0.80671647  0.60690084     0.00000
C4758       C  0.87121845  0.80086191  0.63032949    -0.22900
C4759       C  0.88037825  0.81858157  0.65145039    -0.23100
C4760       C  0.90215622  0.83517783  0.64035258    -0.00100
H4761       H  0.85350450  0.78627248  0.63149600     0.13700
H4762       H  0.87114746  0.81979420  0.67244324     0.13700
N4763       N  0.57695823  0.69262927  0.65006506    -0.02600
C4764       C  0.55693843  0.69888963  0.66993499     0.00000
C4765       C  0.54828795  0.67473393  0.68387657    -0.22900
C4766       C  0.56404579  0.65284050  0.67305359    -0.23100
C4767       C  0.58224194  0.66409372  0.65266560    -0.00100
H4768       H  0.53274278  0.67329054  0.70075644     0.13700
H4769       H  0.56280020  0.63118257  0.68042442     0.13700
N4770       N  0.94470473  0.65754799  0.98047493    -0.02600
C4771       C  0.95023540  0.63836007  0.00139807     0.00000
C4772       C  0.92609894  0.62347787  0.00839071    -0.22900
C4773       C  0.90495852  0.63306821  0.99092108    -0.23100
C4774       C  0.91667319  0.65357340  0.97324943    -0.00100
H4775       H  0.92443874  0.60634428  0.02357432     0.13700
H4776       H  0.88355825  0.62472820  0.99044644     0.13700
O4777       O  0.80420805  0.56459654  0.49606517    -0.87500
C4778       C  0.73649028  0.61625994  0.50613282     0.88600
Mg4779     Mg  0.80747799  0.53570752  0.96189709     1.58100
O4780       O  0.74039835  0.56017631  0.55395597    -0.87200
O4781       O  0.80540646  0.56447086  0.54275358    -0.74500
C4782       C  0.67916947  0.97951965  0.95745975     0.93600
O4783       O  0.76429074  0.59345865  0.94918657    -0.74300
O4784       O  0.70112234  0.97946062  0.94173116    -0.81800
Mg4785     Mg  0.79370232  0.60737656  0.48560057     1.58000
C4786       C  0.67772347  0.51003115  0.57479442     0.93500
O4787       O  0.82519740  0.62008784  0.52071400    -0.80100
H4788       H  0.76184382  0.53855732  0.58356234    -0.05400
C4789       C  0.69025890  0.55037283  0.98612382     0.88500
O4790       O  0.79252540  0.99959092  0.49118260    -0.74600
O4791       O  0.75876572  0.60451008  0.51393274    -0.87400
O4792       O  0.68505354  0.53605275  0.57491624    -0.80200
C4793       C  0.70777929  0.62672351  0.57736366     0.93700
C4794       C  0.82475870  0.62801691  0.54654424     0.93500
Mg4795     Mg  0.71168768  0.99946631  0.51885297     1.58000
O4796       O  0.68090929  0.98604403  0.48365280    -0.80100
O4797       O  0.74131784  0.01347889  0.55516221    -0.74300
O4798       O  0.73391262  0.62490132  0.57052157    -0.80200
O4799       O  0.82828771  0.61237188  0.95252715    -0.81900
O4800       O  0.76955693  0.98078766  0.93375959    -0.80200
C4801       C  0.74817072  0.53764947  0.56516326     0.88000
O4802       O  0.74587849  0.00193176  0.49012019    -0.87400
O4803       O  0.70131858  0.54224831  0.50861196    -0.87500
O4804       O  0.69997617  0.54331787  0.96188349    -0.74500
Mg4805     Mg  0.76903434  0.59424144  0.55669740     1.58000
O4806       O  0.69182977  0.60494417  0.57695467    -0.81900
H4807       H  0.83361908  0.54321105  0.51801624    -0.05600
O4808       O  0.76493137  0.54672710  0.95070602    -0.87200
H4809       H  0.74353642  0.56830714  0.92105097    -0.05400
H4810       H  0.76667632  0.97159384  0.51132682    -0.05600
C4811       C  0.75731426  0.56925374  0.93936409     0.87900
C4812       C  0.81531826  0.55704163  0.51870180     0.88500
C4813       C  0.76809170  0.99008506  0.49783493     0.88600
H4814       H  0.67225855  0.56458808  0.98713561    -0.05600
O4815       O  0.71205659  0.60697710  0.51321032    -0.74600
Mg4816     Mg  0.73551003  0.51293727  0.94742603     1.58000
H4817       H  0.73783892  0.63452187  0.49230647    -0.05600
C4818       C  0.82921158  0.59710380  0.93030627     0.93500
O4819       O  0.81146748  0.00186210  0.92754156    -0.81900
C4820       C  0.79561262  0.97995222  0.92647958     0.93600
O4821       O  0.80175213  0.62922351  0.56061384    -0.81800
Mg4822     Mg  0.69771706  0.57089891  0.54306231     1.58200
O4823       O  0.82254785  0.57085052  0.93125961    -0.80200
O4824       O  0.67695492  0.99561132  0.55198364    -0.81900
N4825       N  0.83110668  0.61065567  0.90286419    -0.02600
C4826       C  0.81089913  0.60510894  0.88281881     0.00000
C4827       C  0.80811791  0.62727238  0.86421356    -0.22900
C4828       C  0.82727028  0.64734715  0.87243205    -0.23100
C4829       C  0.84198464  0.63687220  0.89586852    -0.00100
H4830       H  0.79409922  0.62840006  0.84605128     0.13700
H4831       H  0.82975626  0.66755778  0.86190527     0.13700
N4832       N  0.69567979  0.65466745  0.58087461    -0.02600
C4833       C  0.70453107  0.67734983  0.56522388     0.00000
C4834       C  0.68652646  0.70000901  0.56836987    -0.22900
C4835       C  0.66567551  0.69145150  0.58654793    -0.23100
C4836       C  0.67097764  0.66325296  0.59373474    -0.00100
H4837       H  0.68899948  0.72099591  0.55935689     0.13700
H4838       H  0.64899744  0.70521269  0.59424165     0.13700
N4839       N  0.65128468  0.97752165  0.94486427    -0.02600
C4840       C  0.62967032  0.99494126  0.95294039     0.00000
C4841       C  0.60808901  0.99481831  0.93336982    -0.22900
C4842       C  0.61620513  0.97658348  0.91237793    -0.23100
C4843       C  0.64302146  0.96622721  0.91935494    -0.00100
H4844       H  0.58796990  0.00585305  0.93485596     0.13700
H4845       H  0.60291707  0.97082698  0.89459384     0.13700
O4846       O  0.81112354  0.75194084  0.81645580    -0.87500
C4847       C  0.79967337  0.81926137  0.86721392     0.88600
Mg4848     Mg  0.84531885  0.74947263  0.78772586     1.58100
O4849       O  0.75278432  0.81459553  0.81051029    -0.87200
O4850       O  0.76447661  0.74959259  0.81539125    -0.74500
C4851       C  0.84921497  0.87672153  0.72921083     0.93600
O4852       O  0.85701391  0.79333730  0.84469693    -0.74300
O4853       O  0.86516651  0.85494426  0.72962028    -0.81800
Mg4854     Mg  0.82148360  0.76295082  0.85915139     1.58000
C4855       C  0.73224052  0.87800842  0.76002657     0.93500
O4856       O  0.78743836  0.73079357  0.87281430    -0.80100
H4857       H  0.72337756  0.79320500  0.78855727    -0.05400
C4858       C  0.82050176  0.86626347  0.80044252     0.88500
O4859       O  0.81569211  0.76347608  0.75141256    -0.74600
O4860       O  0.79205883  0.79673431  0.85586990    -0.87400
O4861       O  0.73179779  0.87008449  0.78585817    -0.80200
C4862       C  0.72777988  0.84709723  0.87627193     0.93700
C4863       C  0.76138207  0.72995568  0.88009298     0.93500
Mg4864     Mg  0.78796458  0.84423366  0.74987810     1.58000
O4865       O  0.82308203  0.87489656  0.73605289    -0.80100
O4866       O  0.75159360  0.81446132  0.76382154    -0.74300
O4867       O  0.73444231  0.82084441  0.87531501    -0.80200
O4868       O  0.85587660  0.72948447  0.86484964    -0.81900
O4869       O  0.87195781  0.78605646  0.73166546    -0.80200
C4870       C  0.74167775  0.80703641  0.78787279     0.88000
O4871       O  0.81660439  0.81017281  0.75262319    -0.87400
O4872       O  0.79822770  0.85451005  0.79264275    -0.87500
O4873       O  0.84493659  0.85698328  0.79336564    -0.74500
Mg4874     Mg  0.74951570  0.78570675  0.84467681     1.58000
O4875       O  0.72870659  0.86236900  0.85405362    -0.81900
H4876       H  0.79033043  0.72160002  0.79524715    -0.05600
O4877       O  0.85568595  0.79225681  0.79796764    -0.87200
H4878       H  0.88473608  0.81460658  0.81944917    -0.05400
H4879       H  0.79516797  0.78855195  0.72301037    -0.05600
C4880       C  0.86673755  0.80038802  0.82045801     0.87900
C4881       C  0.78891204  0.74009079  0.80873946     0.88500
C4882       C  0.80883755  0.78764557  0.74141211     0.88600
H4883       H  0.81915097  0.88452617  0.81426777    -0.05600
O4884       O  0.79269912  0.84346557  0.85739017    -0.74600
Mg4885     Mg  0.85928403  0.82090399  0.76351634     1.58000
H4886       H  0.81344802  0.81831571  0.88552927    -0.05600
C4887       C  0.87783053  0.72953811  0.84912239     0.93500
O4888       O  0.88005430  0.74561355  0.75459407    -0.81900
C4889       C  0.87929039  0.76003551  0.73178474     0.93600
O4890       O  0.74552666  0.75186440  0.87903261    -0.81800
Mg4891     Mg  0.76329003  0.85737695  0.82097490     1.58200
O4892       O  0.87609444  0.73605739  0.82292826    -0.80200
O4893       O  0.75524803  0.87921222  0.74595873    -0.81900
N4894       N  0.86131297  0.90466658  0.72570394    -0.02600
C4895       C  0.85246512  0.92734404  0.74136409     0.00000
C4896       C  0.87047839  0.94999904  0.73823556    -0.22900
C4897       C  0.89132960  0.94144520  0.72005620    -0.23100
C4898       C  0.88601909  0.91325230  0.71285168    -0.00100
H4899       H  0.86801112  0.97098148  0.74726089     0.13700
H4900       H  0.90801329  0.95520581  0.71237398     0.13700
N4901       N  0.72588136  0.86064380  0.90371656    -0.02600
C4902       C  0.74608723  0.85509853  0.92376423     0.00000
C4903       C  0.74885841  0.87725810  0.94237634    -0.22900
C4904       C  0.72970194  0.89732839  0.93416006    -0.23100
C4905       C  0.71499510  0.88685478  0.91071741    -0.00100
H4906       H  0.76287387  0.87838642  0.96054139     0.13700
H4907       H  0.72720986  0.91753596  0.94469161     0.13700
N4908       N  0.90571325  0.72753643  0.86172044    -0.02600
C4909       C  0.92733130  0.74495229  0.85364520     0.00000
C4910       C  0.94890531  0.74483738  0.87322343    -0.22900
C4911       C  0.94078152  0.72661010  0.89421829    -0.23100
C4912       C  0.91396768  0.71624892  0.88723512    -0.00100
H4913       H  0.96902468  0.75587236  0.87174097     0.13700
H4914       H  0.95406525  0.72086135  0.91200792     0.13700
O4915       O  0.74021043  0.49690703  0.74993704    -0.87500
C4916       C  0.68944236  0.50836319  0.81804357     0.88600
Mg4917     Mg  0.76958585  0.96351118  0.74723261     1.58100
O4918       O  0.74509499  0.55683766  0.81365261    -0.87200
O4919       O  0.74119070  0.54356886  0.74843311    -0.74500
C4920       C  0.82807773  0.96129985  0.87358546     0.93600
O4921       O  0.71291745  0.95095158  0.79254362    -0.74300
O4922       O  0.82810147  0.94718532  0.85071134    -0.81800
Mg4923     Mg  0.69782337  0.48572905  0.76203738     1.58000
C4924       C  0.79575396  0.57800120  0.87801943     0.93500
O4925       O  0.68314324  0.51856675  0.72923808    -0.80100
H4926       H  0.76628645  0.58725424  0.79289541    -0.05400
C4927       C  0.75627218  0.98926543  0.86424940     0.88500
O4928       O  0.80525045  0.49425707  0.76114741    -0.74600
O4929       O  0.70089241  0.51573050  0.79547006    -0.87400
O4930       O  0.76975237  0.57859819  0.87011224    -0.80200
C4931       C  0.67772370  0.58067600  0.84476788     0.93700
C4932       C  0.67588394  0.54455024  0.72793709     0.93500
Mg4933     Mg  0.80652176  0.52277946  0.84271226     1.58000
O4934       O  0.82115053  0.48747470  0.87341911    -0.80100
O4935       O  0.79178012  0.55932413  0.81359407    -0.74300
O4936       O  0.68022646  0.57333457  0.81876191    -0.80200
O4937       O  0.69274069  0.95054859  0.72971314    -0.81900
O4938       O  0.82628580  0.93887650  0.78280991    -0.80200
C4939       C  0.76745189  0.56872311  0.80635474     0.88000
O4940       O  0.80367847  0.49444854  0.80782711    -0.87400
O4941       O  0.76386004  0.51208463  0.85344637    -0.87500
O4942       O  0.76393321  0.96528415  0.85427841    -0.74500
Mg4943     Mg  0.71130466  0.55826251  0.78407484     1.58000
O4944       O  0.69896433  0.57990757  0.86154869    -0.81900
H4945       H  0.76153157  0.51830746  0.72009140    -0.05600
O4946       O  0.75948682  0.95344833  0.78996060    -0.87200
H4947       H  0.73944763  0.92378387  0.81284231    -0.05400
H4948       H  0.83260003  0.51658249  0.78590425    -0.05600
C4949       C  0.73755610  0.94173779  0.79868459     0.87900
C4950       C  0.74786598  0.51934798  0.73850490     0.88500
C4951       C  0.81471750  0.50221204  0.78520770     0.88600
H4952       H  0.74211014  0.98972832  0.88232088    -0.05600
O4953       O  0.69885292  0.51604972  0.84220658    -0.74600
Mg4954     Mg  0.79405673  0.95150811  0.81800009     1.58000
H4955       H  0.67135739  0.49424509  0.81720185    -0.05600
C4956       C  0.70943867  0.92938490  0.72807518     0.93500
O4957       O  0.80247511  0.92890824  0.74340355    -0.81900
C4958       C  0.82558879  0.93037327  0.75712275     0.93600
O4959       O  0.67735841  0.56086089  0.74950066    -0.81800
Mg4960     Mg  0.73447395  0.54640804  0.85653784     1.58200
O4961       O  0.73572742  0.93189958  0.73370239    -0.80200
O4962       O  0.81006834  0.55511765  0.87805722    -0.81900
N4963       N  0.69784845  0.90119210  0.72563468    -0.02600
C4964       C  0.70498402  0.88096385  0.74495793     0.00000
C4965       C  0.68413180  0.86079952  0.74738158    -0.22900
C4966       C  0.66332465  0.86827028  0.72871294    -0.23100
C4967       C  0.67213126  0.89288661  0.71484483    -0.00100
H4968       H  0.68431392  0.84221903  0.76088879     0.13700
H4969       H  0.64396627  0.85631164  0.72590587     0.13700
N4970       N  0.64934193  0.58607493  0.85532222    -0.02600
C4971       C  0.62633431  0.57158996  0.84567143     0.00000
C4972       C  0.60165714  0.58083047  0.85802207    -0.22900
C4973       C  0.60928157  0.60146591  0.87665692    -0.23100
C4974       C  0.63876672  0.60381314  0.87584053    -0.00100
H4975       H  0.58032239  0.57336368  0.85387121     0.13700
H4976       H  0.59438799  0.61332383  0.88948043     0.13700
N4977       N  0.82885700  0.94635692  0.90042870    -0.02600
C4978       C  0.80825362  0.95196340  0.91995551     0.00000
C4979       C  0.80132205  0.92813095  0.93527047    -0.22900
C4980       C  0.81864644  0.90692298  0.92575692    -0.23100
C4981       C  0.83612387  0.91841409  0.90496504    -0.00100
H4982       H  0.78617226  0.92673114  0.95249013     0.13700
H4983       H  0.81943539  0.88568083  0.93443823     0.13700
C4984       C  0.65184787  0.64904824  0.94082601     0.04000
C4985       C  0.67916707  0.65973456  0.93507446    -0.12100
C4986       C  0.69342266  0.65401506  0.90959582     0.01500
C4987       C  0.68023448  0.63523937  0.89014532    -0.10700
C4988       C  0.65424165  0.62210299  0.89655335     0.04000
C4989       C  0.64039882  0.62922526  0.92222420    -0.10100
H4990       H  0.68843354  0.67335189  0.95043718     0.09600
H4991       H  0.68928641  0.63209723  0.86933428     0.07100
H4992       H  0.61976857  0.62068474  0.92705638     0.07000
loop_ 
_geom_bond_atom_site_label_1 
_geom_bond_atom_site_label_2 
_geom_bond_distance 
_geom_bond_site_symmetry_2 
_ccdc_geom_bond_type 
C1            C2   1.404       .  A
C1            C6   1.414       .  A
C1          C337   1.493       .  S
C2            C3   1.418       .  A
C2            H7   1.079       .  S
C3            C4   1.401       .  A
C3          C613   1.507       .  S
C4            C5   1.407       .  A
C4            H8   1.061       .  S
C5            C6   1.390       .  A
C5          C199   1.497       .  S
C6            H9   1.075       .  S
C10          C11   1.407       .  A
C10          C15   1.409       .  A
C10         C599   1.508       .  S
C11          C12   1.417       .  A
C11          H16   1.064       .  S
C12          C13   1.401       .  A
C12         C130   1.515       .  S
C13          C14   1.412       .  A
C13          H17   1.067       .  S
C14          C15   1.393       .  A
C14         C192   1.494       .  S
C15          H18   1.072       .  S
C19          C20   1.406       .  A
C19          C24   1.417       .  A
C19         C392   1.508       .  S
C20          C21   1.414       .  A
C20          H25   1.065       .  S
C21          C22   1.399       .  A
C21         C268   1.512       .  S
C22          C23   1.410       .  A
C22          H26   1.066       .  S
C23          C24   1.403       .  A
C23         C530   1.505       .  S
C24          H27   1.078       .  S
C28          C29   1.414       .  A
C28          C33   1.399       .  A
C28         C399   1.512       .  S
C29          C30   1.406       .  A
C29          H34   1.065       .  S
C30          C31   1.417       .  A
C30         C261   1.508       .  S
C31          C32   1.403       .  A
C31          H35   1.078       .  S
C32          C33   1.410       .  A
C32         C468   1.505       .  S
C33          H36   1.065       .  S
C37          C38   1.412       .  A
C37          C42   1.393       .  A
C37         C123   1.494       .  S
C38          C39   1.401       .  A
C38          H43   1.067       .  S
C39          C40   1.417       .  A
C39         C185   1.516       .  S
C40          C41   1.407       .  A
C40          H44   1.063       .  S
C41          C42   1.409       .  A
C41         C330   1.508       .  S
C42          H45   1.072       .  S
C46          C47   1.407       .  A
C46          C51   1.400       .  A
C46         C544   1.502       .  S
C47          C48   1.399       .  A
C47          H52   1.066       .  S
C48          C49   1.421       .  A
C48         C406   1.510       .  S
C49          C50   1.410       .  A
C49          H53   1.072       .  S
C50          C51   1.417       .  A
C50         C461   1.518       .  S
C51          H54   1.074       .  S
C55          C56   1.421       .  A
C55          C60   1.399       .  A
C55         C254   1.510       .  S
C56          C57   1.410       .  A
C56          H61   1.072       .  S
C57          C58   1.417       .  A
C57         C537   1.518       .  S
C58          C59   1.400       .  A
C58          H62   1.074       .  S
C59          C60   1.407       .  A
C59         C475   1.502       .  S
C60          H63   1.066       .  S
O64         Mg66   2.118       .  S
O64         Mg72   2.144       .  S
O64          C99   1.241       .  S
C65         H104   1.081       .  S
C65          O78   1.242       .  S
C65         O102   1.276       .  A
Mg66       O2591   2.135       .  S
Mg66        O110   2.317       .  S
Mg66       O1354   2.303   1_545  S
Mg66       O1325   2.299   1_545  S
O67        Mg109   2.135       .  S
O67         Mg92   2.118       .  S
O67          C88   1.242       .  S
O68         C723   1.274       .  A
O68       Mg2588   2.304       .  S
C69          O71   1.269       .  A
C69          O83   1.276       .  A
C69         N126   1.444       .  S
O70          C98   1.273       .  A
O70       Mg2568   2.295       .  S
O71        Mg103   2.255       .  S
Mg72       O2574   2.131       .  S
Mg72         O86   2.287       .  S
Mg72         O74   2.306       .  S
Mg72       O2566   2.295       .  S
C73         C472   1.473       .  S
C73         O111   1.271       .  A
C73        O1327   1.275       .  A
O74         C705   1.275       .  A
H75          C88   1.081       .  S
C76         H101   1.081       .  S
C76          O90   1.241       .  S
C76          O91   1.274       .  A
O77        C2596   1.274       .  A
O77       Mg1314   2.299       .  S
O78       Mg2568   2.131       .  S
O78        Mg716   2.135       .  S
O79        C1321   1.275       .  A
O79        Mg109   2.310       .  S
C80          O93   1.272       .  A
C80          O85   1.281       .  A
C80         N112   1.449       .  S
C81         C403   1.488       .  S
C81         O108   1.277       .  A
C81         O698   1.275       .  A
Mg82         O89   2.105       .  S
Mg82       O1338   2.130       .  S
Mg82         O83   2.299       .  S
Mg82        O708   2.312       .  S
Mg82        O735   2.262       .  S
O84        C1336   1.276       .  A
O84        Mg706   2.312       .  S
O85         Mg92   2.326       .  S
O86         C105   1.273       .  A
O87        C2603   1.272       .  A
O87        Mg103   2.287       .  S
C88        O1332   1.276       .  A
O89        Mg103   2.138       .  S
O89         C100   1.241       .  S
O90       Mg1330   2.130   1_545  S
O90        Mg733   2.124       .  S
O91       Mg1351   2.302       .  S
Mg92        O702   2.135       .  S
Mg92       O2564   2.304   1_455  S
Mg92       O2604   2.293       .  S
O93        Mg109   2.288       .  S
H94          C99   1.081       .  S
O95       Mg2562   2.135   1_455  S
O95       Mg1351   2.107       .  S
O95          C98   1.241       .  S
H96          C98   1.081       .  S
H97         C100   1.081       .  S
C99         O692   1.274       .  A
C100       O2573   1.274       .  A
O102       Mg733   2.309       .  S
Mg103      O1343   2.107       .  S
Mg103      O1339   2.302       .  S
C105        O110   1.281       .  A
C105        N119   1.447       .  S
O106        C107   1.278       .  A
O106      Mg1314   2.303       .  S
C107        C265   1.487       .  S
C107       O2583   1.272       .  A
O108      Mg2588   2.293       .  S
Mg109       O714   2.124       .  S
Mg109       O726   2.309       .  S
O111       Mg706   2.262       .  S
N112        C116   1.375       .  A
N112        C113   1.359       .  A
C113        C114   1.371       .  A
C113        C381   1.461       .  S
C114        C115   1.358       .  A
C114        H117   1.083       .  S
C115        C116   1.393       .  A
C115        H118   1.081       .  S
C116        C616   1.497       .  S
N119        C123   1.373       .  A
N119        C120   1.354       .  A
C120        C121   1.370       .  A
C120        C207   1.458       .  S
C121        C122   1.361       .  A
C121        H124   1.082       .  S
C122        C123   1.393       .  A
C122        H125   1.080       .  S
N126        C130   1.377       .  A
N126        C127   1.361       .  A
C127        C128   1.371       .  A
C127       C1666   1.477       .  S
C128        C129   1.364       .  A
C128        H131   1.083       .  S
C129        C130   1.395       .  A
C129        H132   1.079       .  S
O133       Mg135   2.118   1_655  S
O133      Mg2637   2.135       .  S
O133        C168   1.242   1_655  S
C134        H173   1.081       .  S
C134        O147   1.241       .  S
C134        O171   1.274       .  A
Mg135       O164   2.135       .  S
Mg135       O179   2.326   1_455  S
Mg135       O175   2.293       .  S
Mg135       O146   2.304       .  S
O136       Mg178   2.138       .  S
O136      Mg2657   2.105       .  S
O136        C157   1.241   1_655  S
O137        C168   1.276   1_655  A
O137      Mg2657   2.312       .  S
C138        O140   1.273       .  A
C138        O152   1.281       .  A
C138        N188   1.447       .  S
O139        C167   1.276       .  A
O139       Mg141   2.309       .  S
O140       Mg172   2.287       .  S
Mg141       O147   2.124       .  S
Mg141      O2629   2.135       .  S
Mg141       O155   2.288       .  S
Mg141       O143   2.310       .  S
C142        C396   1.487       .  S
C142        O180   1.278       .  A
C142        O148   1.272       .  A
O143        C150   1.275       .  A
H144        C157   1.081       .  S
C145        H170   1.081   1_455  S
C145        O159   1.241       .  S
C145        O160   1.273       .  A
O146        C169   1.274       .  A
O147       Mg161   2.130       .  S
O148       Mg178   2.287   1_455  S
C149        O162   1.269       .  A
C149        O154   1.276       .  A
C149        N181   1.444       .  S
C150        C541   1.473       .  S
C150        O177   1.271       .  A
Mg151       O158   2.118       .  S
Mg151       O159   2.135       .  S
Mg151       O152   2.317       .  S
Mg151       O153   2.299       .  S
Mg151       O180   2.303       .  S
O153        C157   1.274       .  A
O154       Mg161   2.299       .  S
O155        C174   1.272       .  A
O156        C176   1.275       .  A
O156       Mg172   2.306       .  S
O158       Mg172   2.143       .  S
O158        C169   1.241       .  S
O159       Mg178   2.107   1_455  S
O160       Mg172   2.295       .  S
Mg161      O2632   2.105       .  S
Mg161       O177   2.262       .  S
Mg161      O2633   2.312       .  S
O162      Mg2674   2.255       .  S
H163        C168   1.081       .  S
O164       Mg172   2.131       .  S
O164       C2663   1.242   1_455  S
H165        C167   1.081       .  S
H166        C169   1.081       .  S
C167       O2660   1.242       .  S
O171      Mg2674   2.302       .  S
C174       O2675   1.281       .  A
C174        N195   1.449       .  S
O175        C176   1.277       .  A
C176        C251   1.488       .  S
Mg178      O2658   2.255       .  S
Mg178      O2667   2.302       .  S
O179       C2670   1.281       .  A
N181        C185   1.377       .  A
N181        C182   1.361       .  A
C182        C183   1.371       .  A
C182        C521   1.477       .  S
C183        C184   1.364       .  A
C183        H186   1.083       .  S
C184        C185   1.395       .  A
C184        H187   1.079       .  S
N188        C192   1.373       .  A
N188        C189   1.354       .  A
C189        C190   1.370       .  A
C189        C356   1.458       .  S
C190        C191   1.361       .  A
C190        H193   1.082       .  S
C191        C192   1.393       .  A
C191        H194   1.080       .  S
N195        C199   1.375       .  A
N195        C196   1.359       .  A
C196        C197   1.371       .  A
C196        C218   1.461       .  S
C197        C198   1.358       .  A
C197        H200   1.083       .  S
C198        C199   1.393       .  A
C198        H201   1.081       .  S
O202       Mg204   2.134   1_565  S
O202       Mg210   2.126   1_565  S
O202       C1485   1.242       .  S
C203        H242   1.081   1_565  S
C203       O1464   1.240       .  S
C203       O2736   1.275   1_455  A
Mg204       O233   2.084       .  S
Mg204       O248   2.279       .  S
Mg204       O244   2.261       .  S
Mg204       O215   2.338       .  S
O205       Mg230   2.133       .  S
O205      Mg2743   2.115   1_455  S
O205        C226   1.242       .  S
O206        C237   1.279       .  A
O206       Mg230   2.340       .  S
C207        O221   1.270       .  A
C207       O2705   1.265       .  A
O208        C236   1.275       .  A
O208       Mg210   2.316       .  S
O209       C2703   1.265       .  A
O209       Mg241   2.219       .  S
Mg210      O1464   2.135   1_545  S
Mg210       O224   2.253       .  S
Mg210      O1460   2.350   1_545  S
C211        O249   1.261       .  A
C211        O217   1.269       .  A
C211        N264   1.440       .  S
O212        C219   1.274       .  A
O212      Mg1458   2.350       .  S
H213        C226   1.082       .  S
C214        H239   1.081       .  S
C214        O228   1.240       .  S
C214       O2725   1.275       .  A
O215        C238   1.278       .  A
O216       Mg230   2.089       .  S
O216      Mg1458   2.135       .  S
O216       C1451   1.240       .  S
O217       Mg247   2.323       .  S
C218        O231   1.265       .  A
C218       O2719   1.273       .  A
C219        O246   1.262       .  A
C219        N250   1.445       .  S
Mg220       O227   2.133       .  S
Mg220      O2724   2.085       .  S
Mg220      O2717   2.297       .  S
Mg220      O1470   2.340   1_545  S
Mg220      O3993   2.264   1_445  S
O221      Mg2716   2.297       .  S
O222        C226   1.279       .  A
O222      Mg1468   2.340       .  S
O223       C2714   1.273   1_455  A
O223       Mg230   2.318       .  S
O224        C243   1.270       .  A
O225        C245   1.272       .  A
O225       Mg241   2.346       .  S
O227       Mg241   2.117       .  S
O227        C238   1.241       .  S
O228      Mg2716   2.085       .  S
O228      Mg1495   2.128   1_545  S
O229       C2710   1.275   1_455  A
O229       Mg241   2.320       .  S
Mg230       O246   2.266       .  S
O231       Mg247   2.219       .  S
H232        C237   1.082       .  S
O233       Mg241   2.124       .  S
O233        C236   1.240       .  S
H234        C236   1.081       .  S
H235        C238   1.082       .  S
C237       O1450   1.242       .  S
O240       C2699   1.275       .  A
O240      Mg1495   2.316       .  S
C243        C603   1.461       .  S
C243        O248   1.268       .  A
O244        C245   1.260       .  A
C245        N257   1.441       .  S
Mg247      O2701   2.115       .  S
Mg247      O1476   2.128       .  S
Mg247      O1488   2.316       .  S
O249      Mg3964   2.264       .  S
N250        C254   1.376       .  A
N250        C251   1.363       .  A
C251        C252   1.375       .  A
C252        C253   1.369       .  A
C252        H255   1.082       .  S
C253        C254   1.390       .  A
C253        H256   1.082       .  S
N257        C261   1.372       .  A
N257        C258   1.360       .  A
C258        C259   1.375       .  A
C258        C564   1.482       .  S
C259        C260   1.369       .  A
C259        H262   1.082       .  S
C260        C261   1.391       .  A
C260        H263   1.082       .  S
N264        C268   1.373       .  A
N264        C265   1.360       .  A
C265        C266   1.376       .  A
C266        C267   1.369       .  A
C266        H269   1.083       .  S
C267        C268   1.392       .  A
C267        H270   1.080       .  S
O271       Mg273   2.117   1_556  S
O271       Mg903   2.139       .  S
O271        C306   1.241   1_556  S
C272        H311   1.081       .  S
C272        O285   1.242       .  S
C272        O309   1.276       .  A
Mg273       O302   2.132       .  S
Mg273       O317   2.305   1_554  S
Mg273       O313   2.286       .  S
Mg273       O284   2.297       .  S
O274       Mg316   2.128       .  S
O274       Mg923   2.122       .  S
O274        C295   1.241   1_556  S
O275        C306   1.275   1_556  A
O275       Mg923   2.309       .  S
C276        O278   1.272       .  A
C276        O290   1.271       .  A
C276        N326   1.441       .  S
O277        C305   1.275       .  A
O277       Mg279   2.306       .  S
O278       Mg310   2.264       .  S
Mg279       O285   2.133       .  S
Mg279       O895   2.139       .  S
Mg279       O293   2.311       .  S
Mg279       O281   2.339       .  S
C280        C465   1.474       .  S
C280        O318   1.268       .  A
C280        O286   1.276       .  A
O281        C288   1.280       .  A
H282        C295   1.081       .  S
C283        H308   1.081   1_554  S
C283        O297   1.240       .  S
C283        O298   1.272       .  A
O284        C307   1.273       .  A
O285       Mg299   2.131       .  S
O286       Mg316   2.325   1_554  S
C287        O300   1.267       .  A
C287        O292   1.276       .  A
C287        N319   1.448       .  S
C288        C534   1.480       .  S
C288        O315   1.272       .  A
Mg289       O296   2.099       .  S
Mg289       O297   2.122       .  S
Mg289       O290   2.273       .  S
Mg289       O291   2.313       .  S
Mg289       O318   2.256       .  S
O291        C295   1.275       .  A
O292       Mg299   2.310       .  S
O293        C312   1.276       .  A
O294        C314   1.273       .  A
O294       Mg310   2.294       .  S
O296       Mg310   2.141       .  S
O296        C307   1.240       .  S
O297       Mg316   2.099   1_554  S
O298       Mg310   2.293       .  S
Mg299       O898   2.122       .  S
Mg299       O315   2.264       .  S
Mg299       O899   2.309       .  S
O300       Mg940   2.234       .  S
H301        C306   1.081       .  S
O302       Mg310   2.122       .  S
O302        C929   1.242   1_554  S
H303        C305   1.081       .  S
H304        C307   1.081       .  S
C305        O926   1.242       .  S
O309       Mg940   2.313       .  S
C312        O941   1.279       .  A
C312        N333   1.448       .  S
O313        C314   1.276       .  A
C314        C389   1.482       .  S
Mg316       O924   2.234       .  S
Mg316       O933   2.313       .  S
O317        C936   1.279       .  A
N319        C323   1.377       .  A
N319        C320   1.362       .  A
C320        C321   1.374       .  A
C320        C495   1.479       .  S
C321        C322   1.365       .  A
C321        H324   1.082       .  S
C322        C323   1.389       .  A
C322        H325   1.082       .  S
C323        C618   1.507       .  S
N326        C330   1.371       .  A
N326        C327   1.361       .  A
C327        C328   1.371       .  A
C327        C426   1.474       .  S
C328        C329   1.363       .  A
C328        H331   1.083       .  S
C329        C330   1.394       .  A
C329        H332   1.080       .  S
N333        C337   1.372       .  A
N333        C334   1.359       .  A
C334        C335   1.370       .  A
C334        C345   1.461       .  S
C335        C336   1.359       .  A
C335        H338   1.082       .  S
C336        C337   1.393       .  A
C336        H339   1.081       .  S
O340       Mg342   2.133       .  S
O340       Mg348   2.115       .  S
O340        C375   1.242       .  S
C341        H380   1.081       .  S
C341        O354   1.240       .  S
C341        O378   1.275       .  A
Mg342       O995   2.089       .  S
Mg342      O1010   2.318       .  S
Mg342      O3502   2.266   1_454  S
Mg342      O2849   2.340   1_455  S
O343       Mg385   2.117   1_655  S
O343       Mg368   2.133   1_655  S
O343       C2860   1.241       .  S
O344        C375   1.279       .  A
O344       Mg368   2.340       .  S
C345        O347   1.270       .  A
C345        O983   1.268       .  A
O346        C998   1.275   1_554  A
O346       Mg348   2.316       .  S
O347       Mg379   2.253       .  S
Mg348       O354   2.128       .  S
Mg348       O362   2.219       .  S
Mg348       O350   2.323       .  S
C349        O387   1.260       .  A
C349        O355   1.272       .  A
C349        N388   1.441       .  S
O350        C357   1.269       .  A
H351        C364   1.082       .  S
C352        H377   1.081   1_655  S
C352       O2862   1.240       .  S
C352        O991   1.275       .  A
O353        C376   1.279       .  A
O353      Mg2838   2.340       .  S
O354       Mg368   2.085       .  S
O355      Mg2881   2.346       .  S
C356        O369   1.265       .  A
C356        O361   1.270       .  A
C357        O384   1.261       .  A
C357        N395   1.440       .  S
Mg358       O365   2.134       .  S
Mg358       O366   2.084       .  S
Mg358       O359   2.279       .  S
Mg358       O360   2.338       .  S
Mg358       O387   2.261       .  S
O359        C969   1.268   1_554  A
O360        C364   1.278       .  A
O361       Mg368   2.297       .  S
O362       C1005   1.265       .  A
O363        C383   1.274       .  A
O363       Mg379   2.350       .  S
C364       O2839   1.241       .  S
O365      Mg1003   2.126   1_554  S
O365        C376   1.242       .  S
O366      Mg2881   2.124       .  S
O366       C2848   1.240       .  S
O367        C976   1.275       .  A
O367      Mg2875   2.316       .  S
Mg368       O384   2.264       .  S
O369       Mg385   2.219       .  S
H370        C375   1.082       .  S
O371       Mg966   2.089       .  S
O371      Mg2875   2.135   1_455  S
O371        C374   1.240       .  S
H372        C374   1.081       .  S
H373        C376   1.082       .  S
C374        O970   1.275       .  A
O378       Mg385   2.320       .  S
Mg379       O989   2.126       .  S
Mg379      O2867   2.135       .  S
Mg379      O2863   2.316       .  S
C381        O386   1.273       .  A
C381        O986   1.265       .  A
O382        C383   1.262       .  A
O382      Mg3462   2.266       .  S
C383        N402   1.445       .  S
Mg385      O2862   2.124   1_455  S
Mg385      O2851   2.346   1_455  S
O386       Mg966   2.318       .  S
N388        C392   1.372       .  A
N388        C389   1.360       .  A
C389        C390   1.375       .  A
C390        C391   1.369       .  A
C390        H393   1.082       .  S
C391        C392   1.391       .  A
C391        H394   1.082       .  S
N395        C399   1.373       .  A
N395        C396   1.360       .  A
C396        C397   1.376       .  A
C397        C398   1.369       .  A
C397        H400   1.083       .  S
C398        C399   1.392       .  A
C398        H401   1.080       .  S
N402        C406   1.376       .  A
N402        C403   1.363       .  A
C403        C404   1.375       .  A
C404        C405   1.369       .  A
C404        H407   1.082       .  S
C405        C406   1.390       .  A
C405        H408   1.082       .  S
O409       Mg417   2.134       .  S
O409      Mg1035   2.114       .  S
O409        C444   1.241   1_556  S
C410        H449   1.081   1_554  S
C410        O423   1.242       .  S
C410        O447   1.275       .  A
Mg411       O440   2.136       .  S
Mg411      O1033   2.114       .  S
Mg411       O455   2.309       .  S
Mg411      O1699   2.280       .  S
Mg411      O2294   2.301   1_545  S
O412       Mg454   2.135       .  S
O412       Mg437   2.100       .  S
O412        C433   1.241       .  S
O413        C444   1.274       .  A
O413       Mg437   2.309       .  S
C414        O416   1.271       .  A
C414       O1052   1.275       .  A
C414        N471   1.444       .  S
O415        C443   1.274       .  A
O415      Mg1041   2.301       .  S
O416      Mg1696   2.276       .  S
Mg417       O423   2.122   1_556  S
Mg417       O419   2.302   1_556  S
Mg417      O1039   2.301       .  S
Mg417      O1055   2.265       .  S
C418       C1375   1.477   1_545  S
C418        O424   1.274       .  A
C418       O1704   1.272   1_545  A
O419        C426   1.274       .  A
H420        C433   1.081       .  S
C421        H446   1.081       .  S
C421       O1059   1.242       .  S
C421        O436   1.274       .  A
O422        C445   1.273       .  A
O422      Mg2283   2.301       .  S
O423       Mg437   2.129       .  S
O424       Mg454   2.303       .  S
C425        O438   1.272       .  A
C425        O430   1.274       .  A
C425        N464   1.444       .  S
C426        O453   1.271       .  A
Mg427       O434   2.106   1_554  S
Mg427      O1683   2.130       .  S
Mg427       O428   2.292   1_554  S
Mg427       O429   2.305       .  S
Mg427       O456   2.267       .  S
O428       C1038   1.275       .  A
O429       C1681   1.274       .  A
O430       Mg437   2.290       .  S
O431        C450   1.271       .  A
O431      Mg1041   2.265       .  S
O432        C452   1.274       .  A
O432      Mg1696   2.297       .  S
C433       O1677   1.274       .  A
O434      Mg2320   2.135       .  S
O434        C445   1.240       .  S
O435       Mg454   2.118       .  S
O435      Mg1675   2.130   1_545  S
O435       C1045   1.242   1_554  S
O436       Mg448   2.304       .  S
Mg437       O453   2.264       .  S
O438       Mg454   2.281       .  S
H439        C444   1.081       .  S
O440       Mg448   2.116       .  S
O440        C443   1.242       .  S
H441        C443   1.081       .  S
H442        C445   1.081   1_554  S
O447       Mg454   2.308       .  S
Mg448      O2306   2.135       .  S
Mg448      O1664   2.276   1_545  S
Mg448      O1680   2.297   1_545  S
C450        O455   1.277       .  A
C450        N457   1.445       .  S
O451        C452   1.275       .  A
O451      Mg1659   2.280       .  S
C452        C610   1.479       .  S
O456       C1666   1.272       .  A
N457        C461   1.377       .  A
N457        C458   1.366       .  A
C458        C459   1.370       .  A
C458        C556   1.480       .  S
C459        C460   1.363       .  A
C459        H462   1.083       .  S
C460        C461   1.395       .  A
C460        H463   1.080       .  S
N464        C468   1.372       .  A
N464        C465   1.364       .  A
C465        C466   1.371       .  A
C466        C467   1.363       .  A
C466        H469   1.083       .  S
C467        C468   1.394       .  A
C467        H470   1.081       .  S
N471        C475   1.371       .  A
N471        C472   1.361       .  A
C472        C473   1.373       .  A
C473        C474   1.365       .  A
C473        H476   1.083       .  S
C474        C475   1.393       .  A
C474        H477   1.081       .  S
O478       Mg480   2.106       .  S
O478       Mg486   2.135       .  S
O478        C513   1.240       .  S
C479        H518   1.081       .  S
C479        O492   1.242       .  S
C479        O516   1.274       .  A
Mg480       O509   2.130       .  S
Mg480       O524   2.292       .  S
Mg480       O520   2.267       .  S
Mg480       O491   2.305       .  S
O481       Mg523   2.134       .  S
O481       Mg506   2.114       .  S
O481        C502   1.241       .  S
O482        C513   1.273       .  A
O482       Mg506   2.301       .  S
C483        O485   1.272       .  A
C483        O497   1.274       .  A
C483        N526   1.444       .  S
O484        C512   1.274       .  A
O484       Mg486   2.304       .  S
O485       Mg517   2.281       .  S
Mg486       O492   2.116       .  S
Mg486       O500   2.276       .  S
Mg486       O488   2.297       .  S
C487        C596   1.474       .  S
C487        O525   1.271       .  A
C487        O493   1.274       .  A
O488        C495   1.274       .  A
H489        C502   1.081       .  S
C490        H515   1.081       .  S
C490        O504   1.242       .  S
C490        O505   1.275       .  A
O491        C514   1.274       .  A
O492       Mg506   2.136       .  S
O493       Mg523   2.302       .  S
C494        O507   1.271       .  A
C494        O499   1.277       .  A
C494        N533   1.445       .  S
C495        O522   1.275       .  A
Mg496       O503   2.100       .  S
Mg496       O504   2.129       .  S
Mg496       O497   2.290       .  S
Mg496       O498   2.309       .  S
Mg496       O525   2.264       .  S
O498        C502   1.274       .  A
O499       Mg506   2.308       .  S
O500        C519   1.271       .  A
O501        C521   1.274       .  A
O501       Mg517   2.303       .  S
O503       Mg517   2.135       .  S
O503        C514   1.241       .  S
O504       Mg523   2.122       .  S
O505       Mg517   2.308       .  S
Mg506       O522   2.280       .  S
O507       Mg523   2.265       .  S
H508        C513   1.081       .  S
O509       Mg517   2.118       .  S
O509        C512   1.242       .  S
H510        C512   1.081       .  S
H511        C514   1.081       .  S
O516       Mg523   2.301       .  S
C519        O524   1.275       .  A
C519        N540   1.444       .  S
O520        C521   1.272       .  A
N526        C530   1.372       .  A
N526        C527   1.364       .  A
C527        C528   1.371       .  A
C527        C590   1.473       .  S
C528        C529   1.363       .  A
C528        H531   1.083       .  S
C529        C530   1.394       .  A
C529        H532   1.081       .  S
N533        C537   1.377       .  A
N533        C534   1.366       .  A
C534        C535   1.370       .  A
C535        C536   1.363       .  A
C535        H538   1.083       .  S
C536        C537   1.395       .  A
C536        H539   1.080       .  S
N540        C544   1.371       .  A
N540        C541   1.361       .  A
C541        C542   1.373       .  A
C542        C543   1.365       .  A
C542        H545   1.083       .  S
C543        C544   1.393       .  A
C543        H546   1.081       .  S
O547       Mg555   2.141       .  S
O547      Mg1797   2.099       .  S
O547        C582   1.240   1_565  S
C548        H587   1.081   1_545  S
C548        O561   1.242       .  S
C548        O585   1.275       .  A
Mg549       O578   2.122       .  S
Mg549      O1795   2.099       .  S
Mg549       O593   2.273       .  S
Mg549       O589   2.256       .  S
Mg549      O1808   2.313       .  S
O550       Mg592   2.139       .  S
O550       Mg575   2.117       .  S
O550        C571   1.241       .  S
O551        C582   1.273       .  A
O551       Mg575   2.297       .  S
C552        O554   1.267       .  A
C552       O1814   1.276       .  A
C552        N609   1.448       .  S
O553        C581   1.272       .  A
O553      Mg1803   2.293       .  S
O554       Mg586   2.234       .  S
Mg555       O561   2.122   1_565  S
Mg555       O557   2.294   1_565  S
Mg555      O1801   2.293       .  S
Mg555      O1817   2.264       .  S
C556        O594   1.272       .  A
C556        O562   1.280       .  A
O557        C564   1.273       .  A
H558        C571   1.081       .  S
C559        H584   1.081       .  S
C559       O1821   1.242       .  S
C559        O574   1.276       .  A
O560        C583   1.275   1_565  A
O560      Mg1797   2.313       .  S
O561       Mg575   2.132       .  S
O562       Mg592   2.339       .  S
C563        O576   1.276       .  A
C563        O568   1.279       .  A
C563        N602   1.448       .  S
C564        O591   1.276       .  A
Mg565       O572   2.122   1_545  S
Mg565       O573   2.131       .  S
Mg565       O566   2.311   1_545  S
Mg565       O567   2.309       .  S
Mg565       O594   2.264       .  S
O566       C1800   1.276       .  A
O567        C571   1.275       .  A
O568       Mg575   2.305       .  S
O569        C588   1.272       .  A
O569      Mg1803   2.264       .  S
O570        C590   1.276       .  A
O570       Mg586   2.324       .  S
O572      Mg1834   2.128       .  S
O572        C583   1.241   1_565  S
O573       Mg592   2.133       .  S
O573       C1807   1.242   1_545  S
O574       Mg586   2.313       .  S
Mg575       O591   2.286       .  S
O576       Mg592   2.311       .  S
H577        C582   1.081       .  S
O578       Mg586   2.099       .  S
O578        C581   1.240       .  S
H579        C581   1.081       .  S
H580        C583   1.081       .  S
O585       Mg592   2.306       .  S
Mg586      O1820   2.128       .  S
C588        O593   1.271       .  A
C588        N595   1.441       .  S
O589        C590   1.268       .  A
N595        C599   1.371       .  A
N595        C596   1.361       .  A
C596        C597   1.371       .  A
C597        C598   1.363       .  A
C597        H600   1.083       .  S
C598        C599   1.394       .  A
C598        H601   1.080       .  S
N602        C606   1.371       .  A
N602        C603   1.359       .  A
C603        C604   1.370       .  A
C604        C605   1.359       .  A
C604        H607   1.082       .  S
C605        C606   1.393       .  A
C605        H608   1.081       .  S
C606        C620   1.493       .  S
N609        C613   1.377       .  A
N609        C610   1.362       .  A
C610        C611   1.374       .  A
C611        C612   1.365       .  A
C611        H614   1.082       .  S
C612        C613   1.389       .  A
C612        H615   1.082       .  S
C616        C617   1.407       .  A
C616        C621   1.390       .  A
C617        C618   1.401       .  A
C617        H622   1.062       .  S
C618        C619   1.418       .  A
C619        C620   1.404       .  A
C619        H623   1.079       .  S
C620        C621   1.414       .  A
C621        H624   1.075       .  S
C625        C626   1.404       .  A
C625        C630   1.414       .  A
C625        C961   1.493       .  S
C626        C627   1.418       .  A
C626        H631   1.079       .  S
C627        C628   1.401       .  A
C627       C1237   1.507       .  S
C628        C629   1.407       .  A
C628        H632   1.062       .  S
C629        C630   1.390       .  A
C629        C823   1.497       .  S
C630        H633   1.075       .  S
C634        C635   1.407       .  A
C634        C639   1.409       .  A
C634       C1223   1.508       .  S
C635        C636   1.417       .  A
C635        H640   1.064       .  S
C636        C637   1.401       .  A
C636        C754   1.515       .  S
C637        C638   1.412       .  A
C637        H641   1.067       .  S
C638        C639   1.393       .  A
C638        C816   1.494       .  S
C639        H642   1.072       .  S
C643        C644   1.406       .  A
C643        C648   1.417       .  A
C643       C1016   1.508       .  S
C644        C645   1.414       .  A
C644        H649   1.065       .  S
C645        C646   1.399       .  A
C645        C892   1.512       .  S
C646        C647   1.410       .  A
C646        H650   1.066       .  S
C647        C648   1.403       .  A
C647       C1154   1.505       .  S
C648        H651   1.078       .  S
C652        C653   1.414       .  A
C652        C657   1.399       .  A
C652       C1023   1.512       .  S
C653        C654   1.406       .  A
C653        H658   1.065       .  S
C654        C655   1.417       .  A
C654        C885   1.508       .  S
C655        C656   1.403       .  A
C655        H659   1.078       .  S
C656        C657   1.410       .  A
C656       C1092   1.505       .  S
C657        H660   1.065       .  S
C661        C662   1.412       .  A
C661        C666   1.393       .  A
C661        C747   1.494       .  S
C662        C663   1.401       .  A
C662        H667   1.067       .  S
C663        C664   1.417       .  A
C663        C809   1.516       .  S
C664        C665   1.407       .  A
C664        H668   1.063       .  S
C665        C666   1.409       .  A
C665        C954   1.508       .  S
C666        H669   1.072       .  S
C670        C671   1.407       .  A
C670        C675   1.400       .  A
C670       C1168   1.502       .  S
C671        C672   1.399       .  A
C671        H676   1.066       .  S
C672        C673   1.421       .  A
C672       C1030   1.510       .  S
C673        C674   1.410       .  A
C673        H677   1.072       .  S
C674        C675   1.417       .  A
C674       C1085   1.518       .  S
C675        H678   1.074       .  S
C679        C680   1.421       .  A
C679        C684   1.399       .  A
C679        C878   1.510       .  S
C680        C681   1.410       .  A
C680        H685   1.072       .  S
C681        C682   1.417       .  A
C681       C1161   1.518       .  S
C682        C683   1.400       .  A
C682        H686   1.074       .  S
C683        C684   1.407       .  A
C683       C1099   1.502       .  S
C684        H687   1.066       .  S
O688       Mg690   2.118       .  S
O688       Mg696   2.144       .  S
O688        C723   1.241       .  S
C689        H728   1.081       .  S
C689        O702   1.242       .  S
C689        O726   1.276       .  A
Mg690      O3215   2.135       .  S
Mg690       O734   2.317       .  S
Mg690      O1978   2.303   1_545  S
Mg690      O1949   2.299   1_545  S
O691       Mg733   2.135       .  S
O691       Mg716   2.118       .  S
O691        C712   1.242   1_554  S
O692      Mg3212   2.304       .  S
C693        O695   1.269       .  A
C693        O707   1.276       .  A
C693        N750   1.444       .  S
O694        C722   1.273       .  A
O694      Mg3192   2.295       .  S
O695       Mg727   2.255       .  S
Mg696      O3198   2.131       .  S
Mg696      O3190   2.295       .  S
Mg696       O710   2.287       .  S
Mg696       O698   2.306       .  S
C697       C1096   1.473       .  S
C697        O735   1.271   1_556  A
C697       O1951   1.275       .  A
H699        C712   1.081       .  S
C700        H725   1.081       .  S
C700        O714   1.241       .  S
C700        O715   1.274       .  A
O701       C3220   1.274       .  A
O701      Mg1938   2.299       .  S
O702      Mg3192   2.131       .  S
O703       C1945   1.275       .  A
O703       Mg733   2.310   1_556  S
C704        O717   1.272       .  A
C704        O709   1.281       .  A
C704        N736   1.449       .  S
C705       C1027   1.488       .  S
C705        O732   1.277   1_554  A
Mg706       O713   2.105       .  S
Mg706      O1962   2.130       .  S
Mg706       O707   2.299       .  S
O708       C1960   1.276   1_554  A
O709       Mg716   2.326   1_556  S
O710        C729   1.273       .  A
O711       C3227   1.272       .  A
O711       Mg727   2.287       .  S
C712       O1956   1.276   1_556  A
O713       Mg727   2.138       .  S
O713        C724   1.241       .  S
O714      Mg1954   2.130   1_545  S
O715      Mg1975   2.302       .  S
Mg716      O3188   2.304   1_455  S
Mg716      O3228   2.293   1_554  S
O717       Mg733   2.288   1_556  S
H718        C723   1.081       .  S
O719      Mg3186   2.135   1_455  S
O719      Mg1975   2.107       .  S
O719        C722   1.241       .  S
H720        C722   1.081       .  S
H721        C724   1.081       .  S
C724       O3197   1.274       .  A
Mg727      O1967   2.107       .  S
Mg727      O1963   2.302       .  S
C729        O734   1.281       .  A
C729        N743   1.447       .  S
O730        C731   1.278       .  A
O730      Mg1938   2.303       .  S
C731        C889   1.487       .  S
C731       O3207   1.272       .  A
O732      Mg3212   2.293   1_556  S
N736        C740   1.375       .  A
N736        C737   1.359       .  A
C737        C738   1.371       .  A
C737       C1005   1.461   1_556  S
C738        C739   1.358       .  A
C738        H741   1.083       .  S
C739        C740   1.393       .  A
C739        H742   1.081       .  S
C740       C1240   1.497       .  S
N743        C747   1.373       .  A
N743        C744   1.354       .  A
C744        C745   1.370       .  A
C744        C831   1.458       .  S
C745        C746   1.361       .  A
C745        H748   1.082       .  S
C746        C747   1.393       .  A
C746        H749   1.080       .  S
N750        C754   1.377       .  A
N750        C751   1.361       .  A
C751        C752   1.371       .  A
C751       C2290   1.477       .  S
C752        C753   1.364       .  A
C752        H755   1.083       .  S
C753        C754   1.395       .  A
C753        H756   1.079       .  S
O757       Mg759   2.118   1_655  S
O757      Mg3261   2.135       .  S
O757        C792   1.242   1_655  S
C758        H797   1.081       .  S
C758        O771   1.241       .  S
C758        O795   1.274       .  A
Mg759       O788   2.135       .  S
Mg759       O803   2.326   1_455  S
Mg759       O799   2.293       .  S
Mg759       O770   2.304       .  S
O760       Mg802   2.138       .  S
O760      Mg3281   2.105       .  S
O760        C781   1.241   1_655  S
O761        C792   1.276   1_655  A
O761      Mg3281   2.312       .  S
C762        O764   1.273       .  A
C762        O776   1.281       .  A
C762        N812   1.447       .  S
O763        C791   1.276       .  A
O763       Mg765   2.309       .  S
O764       Mg796   2.287       .  S
Mg765      O3253   2.135       .  S
Mg765       O771   2.124       .  S
Mg765       O779   2.288       .  S
Mg765       O767   2.310       .  S
C766       C1020   1.487       .  S
C766        O804   1.278       .  A
C766        O772   1.272       .  A
O767        C774   1.275       .  A
H768        C781   1.081       .  S
C769        H794   1.081   1_455  S
C769        O783   1.241       .  S
C769        O784   1.273       .  A
O770        C793   1.274       .  A
O771       Mg785   2.130       .  S
O772       Mg802   2.287   1_455  S
C773        O786   1.269       .  A
C773        O778   1.276       .  A
C773        N805   1.444       .  S
C774       C1165   1.473       .  S
C774        O801   1.271       .  A
Mg775       O782   2.118       .  S
Mg775       O783   2.135       .  S
Mg775       O776   2.317       .  S
Mg775       O777   2.299       .  S
Mg775       O804   2.303       .  S
O777        C781   1.274       .  A
O778       Mg785   2.299       .  S
O779        C798   1.272       .  A
O780        C800   1.275       .  A
O780       Mg796   2.306       .  S
O782       Mg796   2.143       .  S
O782        C793   1.241       .  S
O783       Mg802   2.107   1_455  S
O784       Mg796   2.295       .  S
Mg785      O3256   2.105       .  S
Mg785      O3257   2.312       .  S
Mg785       O801   2.262       .  S
O786      Mg3298   2.255       .  S
H787        C792   1.081       .  S
O788       Mg796   2.131       .  S
O788       C3287   1.242   1_455  S
H789        C791   1.081       .  S
H790        C793   1.081       .  S
C791       O3284   1.242       .  S
O795      Mg3298   2.302       .  S
C798       O3299   1.281       .  A
C798        N819   1.449       .  S
O799        C800   1.277       .  A
C800        C875   1.488       .  S
Mg802      O3282   2.255       .  S
Mg802      O3291   2.302       .  S
O803       C3294   1.281       .  A
N805        C809   1.377       .  A
N805        C806   1.361       .  A
C806        C807   1.371       .  A
C806       C1145   1.477       .  S
C807        C808   1.364       .  A
C807        H810   1.083       .  S
C808        C809   1.395       .  A
C808        H811   1.079       .  S
N812        C816   1.373       .  A
N812        C813   1.354       .  A
C813        C814   1.370       .  A
C813        C980   1.458       .  S
C814        C815   1.361       .  A
C814        H817   1.082       .  S
C815        C816   1.393       .  A
C815        H818   1.080       .  S
N819        C823   1.375       .  A
N819        C820   1.359       .  A
C820        C821   1.371       .  A
C820        C842   1.461       .  S
C821        C822   1.358       .  A
C821        H824   1.083       .  S
C822        C823   1.393       .  A
C822        H825   1.081       .  S
O826       Mg828   2.134   1_565  S
O826       Mg834   2.126   1_565  S
O826       C2109   1.242       .  S
C827        H866   1.081   1_565  S
C827       O2088   1.240       .  S
C827       O3360   1.275   1_455  A
Mg828       O857   2.084       .  S
Mg828       O872   2.279       .  S
Mg828       O868   2.261       .  S
Mg828       O839   2.338       .  S
O829      Mg3367   2.115   1_455  S
O829       Mg854   2.133       .  S
O829        C850   1.242       .  S
O830        C861   1.279       .  A
O830       Mg854   2.340       .  S
C831       O3329   1.265       .  A
C831        O845   1.270       .  A
O832        C860   1.275       .  A
O832       Mg834   2.316       .  S
O833       C3327   1.265       .  A
O833       Mg865   2.219       .  S
Mg834      O2088   2.135   1_545  S
Mg834       O848   2.253       .  S
Mg834      O2084   2.350   1_545  S
C835        O873   1.261       .  A
C835        O841   1.269       .  A
C835        N888   1.440       .  S
O836        C843   1.274       .  A
O836      Mg2082   2.350       .  S
H837        C850   1.082       .  S
C838        H863   1.081       .  S
C838        O852   1.240       .  S
C838       O3349   1.275       .  A
O839        C862   1.278       .  A
O840      Mg2082   2.135       .  S
O840       Mg854   2.089       .  S
O840       C2075   1.240       .  S
O841       Mg871   2.323       .  S
C842        O855   1.265       .  A
C842       O3343   1.273       .  A
C843        O870   1.262       .  A
C843        N874   1.445       .  S
Mg844       O851   2.133       .  S
Mg844      O3348   2.085       .  S
Mg844      O3341   2.297       .  S
Mg844      O2094   2.340   1_545  S
Mg844      O4617   2.264   1_445  S
O845      Mg3340   2.297       .  S
O846        C850   1.279       .  A
O846      Mg2092   2.340       .  S
O847       C3338   1.273   1_455  A
O847       Mg854   2.318       .  S
O848        C867   1.270       .  A
O849        C869   1.272       .  A
O849       Mg865   2.346       .  S
O851       Mg865   2.117       .  S
O851        C862   1.241       .  S
O852      Mg3340   2.085       .  S
O852      Mg2119   2.128   1_545  S
O853       C3334   1.275   1_455  A
O853       Mg865   2.320       .  S
Mg854       O870   2.266       .  S
O855       Mg871   2.219       .  S
H856        C861   1.082       .  S
O857       Mg865   2.124       .  S
O857        C860   1.240       .  S
H858        C860   1.081       .  S
H859        C862   1.082       .  S
C861       O2074   1.242       .  S
O864       C3323   1.275       .  A
O864      Mg2119   2.316       .  S
C867       C1227   1.461       .  S
C867        O872   1.268       .  A
O868        C869   1.260       .  A
C869        N881   1.441       .  S
Mg871      O3325   2.115       .  S
Mg871      O2100   2.128       .  S
Mg871      O2112   2.316       .  S
O873      Mg4588   2.264       .  S
N874        C878   1.376       .  A
N874        C875   1.363       .  A
C875        C876   1.375       .  A
C876        C877   1.369       .  A
C876        H879   1.082       .  S
C877        C878   1.390       .  A
C877        H880   1.082       .  S
N881        C885   1.372       .  A
N881        C882   1.360       .  A
C882        C883   1.375       .  A
C882       C1188   1.482       .  S
C883        C884   1.369       .  A
C883        H886   1.082       .  S
C884        C885   1.391       .  A
C884        H887   1.082       .  S
N888        C892   1.373       .  A
N888        C889   1.360       .  A
C889        C890   1.376       .  A
C890        C891   1.369       .  A
C890        H893   1.083       .  S
C891        C892   1.392       .  A
C891        H894   1.080       .  S
O895       Mg897   2.117       .  S
O895        C930   1.241       .  S
C896        H935   1.081       .  S
C896        O909   1.242       .  S
C896        O933   1.276       .  A
Mg897       O926   2.132       .  S
Mg897       O941   2.305       .  S
Mg897       O937   2.286       .  S
Mg897       O908   2.297       .  S
O898       Mg940   2.128       .  S
O898        C919   1.241       .  S
O899        C930   1.275       .  A
C900        O902   1.272       .  A
C900        O914   1.271       .  A
C900        N950   1.441       .  S
O901        C929   1.275       .  A
O901       Mg903   2.306       .  S
O902       Mg934   2.264       .  S
Mg903       O909   2.133       .  S
Mg903       O917   2.311       .  S
Mg903       O905   2.339       .  S
C904       C1089   1.474       .  S
C904        O942   1.268       .  A
C904        O910   1.276       .  A
O905        C912   1.280       .  A
H906        C919   1.081       .  S
C907        H932   1.081       .  S
C907        O921   1.240       .  S
C907        O922   1.272       .  A
O908        C931   1.273       .  A
O909       Mg923   2.131       .  S
O910       Mg940   2.325       .  S
C911        O924   1.267       .  A
C911        O916   1.276       .  A
C911        N943   1.448       .  S
C912       C1158   1.480       .  S
C912        O939   1.272       .  A
Mg913       O920   2.099       .  S
Mg913       O921   2.122       .  S
Mg913       O914   2.273       .  S
Mg913       O915   2.313       .  S
Mg913       O942   2.256       .  S
O915        C919   1.275       .  A
O916       Mg923   2.310       .  S
O917        C936   1.276       .  A
O918        C938   1.273       .  A
O918       Mg934   2.294       .  S
O920       Mg934   2.141       .  S
O920        C931   1.240       .  S
O921       Mg940   2.099       .  S
O922       Mg934   2.293       .  S
Mg923       O939   2.264       .  S
H925        C930   1.081       .  S
O926       Mg934   2.122       .  S
H927        C929   1.081       .  S
H928        C931   1.081       .  S
C936        N957   1.448       .  S
O937        C938   1.276       .  A
C938       C1013   1.482       .  S
N943        C947   1.377       .  A
N943        C944   1.362       .  A
C944        C945   1.374       .  A
C944       C1119   1.479       .  S
C945        C946   1.365       .  A
C945        H948   1.082       .  S
C946        C947   1.389       .  A
C946        H949   1.082       .  S
C947       C1242   1.507       .  S
N950        C954   1.371       .  A
N950        C951   1.361       .  A
C951        C952   1.371       .  A
C951       C1050   1.474       .  S
C952        C953   1.363       .  A
C952        H955   1.083       .  S
C953        C954   1.394       .  A
C953        H956   1.080       .  S
N957        C961   1.372       .  A
N957        C958   1.359       .  A
C958        C959   1.370       .  A
C958        C969   1.461       .  S
C959        C960   1.359       .  A
C959        H962   1.082       .  S
C960        C961   1.393       .  A
C960        H963   1.081       .  S
O964       Mg966   2.133       .  S
O964       Mg972   2.115       .  S
O964        C999   1.242       .  S
C965       H1004   1.081       .  S
C965        O978   1.240       .  S
C965       O1002   1.275       .  A
Mg966      O2878   2.266   1_455  S
Mg966      O3473   2.340   1_455  S
O967      Mg1009   2.117   1_655  S
O967       Mg992   2.133   1_655  S
O967       C3484   1.241       .  S
O968        C999   1.279       .  A
O968       Mg992   2.340       .  S
C969        O971   1.270       .  A
O970       Mg972   2.316       .  S
O971      Mg1003   2.253       .  S
Mg972       O978   2.128       .  S
Mg972       O986   2.219       .  S
Mg972       O974   2.323       .  S
C973       O1011   1.260       .  A
C973        O979   1.272       .  A
C973       N1012   1.441       .  S
O974        C981   1.269       .  A
H975        C988   1.082       .  S
C976       H1001   1.081   1_655  S
C976       O3486   1.240       .  S
O977       C1000   1.279       .  A
O977      Mg3462   2.340       .  S
O978       Mg992   2.085       .  S
O979      Mg3505   2.346       .  S
C980        O993   1.265       .  A
C980        O985   1.270       .  A
C981       O1008   1.261       .  A
C981       N1019   1.440       .  S
Mg982       O989   2.134       .  S
Mg982       O990   2.084       .  S
Mg982       O983   2.279       .  S
Mg982       O984   2.338       .  S
Mg982      O1011   2.261       .  S
O984        C988   1.278       .  A
O985       Mg992   2.297       .  S
O987       C1007   1.274       .  A
O987      Mg1003   2.350       .  S
C988       O3463   1.241       .  S
O989       C1000   1.242       .  S
O990      Mg3505   2.124       .  S
O990       C3472   1.240       .  S
O991      Mg3499   2.316   1_554  S
Mg992      O1008   2.264       .  S
O993      Mg1009   2.219       .  S
H994        C999   1.081       .  S
O995      Mg3499   2.135   1_454  S
O995        C998   1.240   1_554  S
H996        C998   1.081       .  S
H997       C1000   1.082       .  S
O1002     Mg1009   2.320       .  S
Mg1003     O3491   2.135   1_556  S
Mg1003     O3487   2.316   1_556  S
C1005      O1010   1.273       .  A
O1006      C1007   1.262       .  A
O1006     Mg2838   2.266   1_556  S
C1007      N1026   1.445       .  S
Mg1009     O3486   2.124   1_455  S
Mg1009     O3475   2.346   1_455  S
N1012      C1016   1.372       .  A
N1012      C1013   1.360       .  A
C1013      C1014   1.375       .  A
C1014      C1015   1.369       .  A
C1014      H1017   1.082       .  S
C1015      C1016   1.391       .  A
C1015      H1018   1.082       .  S
N1019      C1023   1.373       .  A
N1019      C1020   1.360       .  A
C1020      C1021   1.376       .  A
C1021      C1022   1.369       .  A
C1021      H1024   1.083       .  S
C1022      C1023   1.392       .  A
C1022      H1025   1.080       .  S
N1026      C1030   1.376       .  A
N1026      C1027   1.363   1_556  A
C1027      C1028   1.375       .  A
C1028      C1029   1.369   1_554  A
C1028      H1031   1.082       .  S
C1029      C1030   1.390       .  A
C1029      H1032   1.082       .  S
O1033     Mg1041   2.134       .  S
O1033      C1068   1.241       .  S
C1034      H1073   1.081       .  S
C1034      O1047   1.242       .  S
C1034      O1071   1.275       .  A
Mg1035     O1064   2.136       .  S
Mg1035     O1079   2.309       .  S
Mg1035     O2323   2.280       .  S
Mg1035     O1670   2.301   1_545  S
O1036     Mg1078   2.135       .  S
O1036     Mg1061   2.100       .  S
O1036      C1057   1.241       .  S
O1037      C1068   1.274       .  A
O1037     Mg1061   2.309       .  S
C1038      O1040   1.271       .  A
C1038      N1095   1.444       .  S
O1039      C1067   1.274       .  A
O1040     Mg2320   2.276       .  S
Mg1041     O1047   2.122       .  S
Mg1041     O1043   2.302       .  S
C1042      C1999   1.477   1_545  S
C1042      O2328   1.272   1_545  A
C1042      O1048   1.274       .  A
O1043      C1050   1.274       .  A
H1044      C1057   1.081       .  S
C1045      H1070   1.081       .  S
C1045      O1060   1.274       .  A
O1046      C1069   1.273       .  A
O1046     Mg1659   2.301       .  S
O1047     Mg1061   2.129       .  S
O1048     Mg1078   2.303       .  S
C1049      O1062   1.272       .  A
C1049      O1054   1.274       .  A
C1049      N1088   1.444       .  S
C1050      O1077   1.271       .  A
Mg1051     O1058   2.106       .  S
Mg1051     O2307   2.130       .  S
Mg1051     O1052   2.292       .  S
Mg1051     O1053   2.305       .  S
Mg1051     O1080   2.267       .  S
O1053      C2305   1.274       .  A
O1054     Mg1061   2.290       .  S
O1055      C1074   1.271       .  A
O1056      C1076   1.274       .  A
O1056     Mg2320   2.297       .  S
C1057      O2301   1.274       .  A
O1058     Mg1696   2.135       .  S
O1058      C1069   1.240       .  S
O1059     Mg2299   2.130   1_545  S
O1059     Mg1078   2.118       .  S
O1060     Mg1072   2.304       .  S
Mg1061     O1077   2.264       .  S
O1062     Mg1078   2.281       .  S
H1063      C1068   1.081       .  S
O1064     Mg1072   2.116       .  S
O1064      C1067   1.242       .  S
H1065      C1067   1.081       .  S
H1066      C1069   1.081       .  S
O1071     Mg1078   2.308       .  S
Mg1072     O1682   2.135       .  S
Mg1072     O2288   2.276   1_545  S
Mg1072     O2304   2.297   1_545  S
C1074      O1079   1.277       .  A
C1074      N1081   1.445       .  S
O1075      C1076   1.275       .  A
O1075     Mg2283   2.280       .  S
C1076      C1234   1.479       .  S
O1080      C2290   1.272       .  A
N1081      C1085   1.377       .  A
N1081      C1082   1.366       .  A
C1082      C1083   1.370       .  A
C1082      C1180   1.480       .  S
C1083      C1084   1.363       .  A
C1083      H1086   1.083       .  S
C1084      C1085   1.395       .  A
C1084      H1087   1.080       .  S
N1088      C1092   1.372       .  A
N1088      C1089   1.364       .  A
C1089      C1090   1.371       .  A
C1090      C1091   1.363       .  A
C1090      H1093   1.083       .  S
C1091      C1092   1.394       .  A
C1091      H1094   1.081       .  S
N1095      C1099   1.371       .  A
N1095      C1096   1.361       .  A
C1096      C1097   1.373       .  A
C1097      C1098   1.365       .  A
C1097      H1100   1.083       .  S
C1098      C1099   1.393       .  A
C1098      H1101   1.081       .  S
O1102     Mg1104   2.106       .  S
O1102     Mg1110   2.135       .  S
O1102      C1137   1.240       .  S
C1103      H1142   1.081       .  S
C1103      O1116   1.242       .  S
C1103      O1140   1.274       .  A
Mg1104     O1133   2.130       .  S
Mg1104     O1148   2.292       .  S
Mg1104     O1144   2.267       .  S
Mg1104     O1115   2.305       .  S
O1105     Mg1147   2.134       .  S
O1105     Mg1130   2.114       .  S
O1105      C1126   1.241       .  S
O1106      C1137   1.273       .  A
O1106     Mg1130   2.301       .  S
C1107      O1109   1.272       .  A
C1107      O1121   1.274       .  A
C1107      N1150   1.444       .  S
O1108      C1136   1.274       .  A
O1108     Mg1110   2.304       .  S
O1109     Mg1141   2.281       .  S
Mg1110     O1116   2.116       .  S
Mg1110     O1124   2.276       .  S
Mg1110     O1112   2.297       .  S
C1111      C1220   1.474       .  S
C1111      O1149   1.271       .  A
C1111      O1117   1.274       .  A
O1112      C1119   1.274       .  A
H1113      C1126   1.081       .  S
C1114      H1139   1.081       .  S
C1114      O1128   1.242       .  S
C1114      O1129   1.275       .  A
O1115      C1138   1.274       .  A
O1116     Mg1130   2.136       .  S
O1117     Mg1147   2.302       .  S
C1118      O1131   1.271       .  A
C1118      O1123   1.277       .  A
C1118      N1157   1.445       .  S
C1119      O1146   1.275       .  A
Mg1120     O1127   2.100       .  S
Mg1120     O1128   2.129       .  S
Mg1120     O1121   2.290       .  S
Mg1120     O1122   2.309       .  S
Mg1120     O1149   2.264       .  S
O1122      C1126   1.274       .  A
O1123     Mg1130   2.308       .  S
O1124      C1143   1.271       .  A
O1125      C1145   1.274       .  A
O1125     Mg1141   2.303       .  S
O1127     Mg1141   2.135       .  S
O1127      C1138   1.241       .  S
O1128     Mg1147   2.122       .  S
O1129     Mg1141   2.308       .  S
Mg1130     O1146   2.280       .  S
O1131     Mg1147   2.265       .  S
H1132      C1137   1.081       .  S
O1133     Mg1141   2.118       .  S
O1133      C1136   1.242       .  S
H1134      C1136   1.081       .  S
H1135      C1138   1.081       .  S
O1140     Mg1147   2.301       .  S
C1143      O1148   1.275       .  A
C1143      N1164   1.444       .  S
O1144      C1145   1.272       .  A
N1150      C1154   1.372       .  A
N1150      C1151   1.364       .  A
C1151      C1152   1.371       .  A
C1151      C1214   1.473       .  S
C1152      C1153   1.363       .  A
C1152      H1155   1.083       .  S
C1153      C1154   1.394       .  A
C1153      H1156   1.081       .  S
N1157      C1161   1.377       .  A
N1157      C1158   1.366       .  A
C1158      C1159   1.370       .  A
C1159      C1160   1.363       .  A
C1159      H1162   1.083       .  S
C1160      C1161   1.395       .  A
C1160      H1163   1.080       .  S
N1164      C1168   1.371       .  A
N1164      C1165   1.361       .  A
C1165      C1166   1.373       .  A
C1166      C1167   1.365       .  A
C1166      H1169   1.083       .  S
C1167      C1168   1.393       .  A
C1167      H1170   1.081       .  S
O1171     Mg2421   2.099       .  S
O1171     Mg1179   2.141       .  S
O1171      C1206   1.240   1_565  S
C1172      H1211   1.081   1_545  S
C1172      O1185   1.242       .  S
C1172      O1209   1.275       .  A
Mg1173     O2419   2.099       .  S
Mg1173     O1202   2.122       .  S
Mg1173     O1217   2.273       .  S
Mg1173     O1213   2.256       .  S
Mg1173     O2432   2.313       .  S
O1174     Mg1216   2.139       .  S
O1174     Mg1199   2.117       .  S
O1174      C1195   1.241       .  S
O1175      C1206   1.273       .  A
O1175     Mg1199   2.297       .  S
C1176      O1178   1.267       .  A
C1176      O2438   1.276       .  A
C1176      N1233   1.448       .  S
O1177      C1205   1.272       .  A
O1177     Mg2427   2.293       .  S
O1178     Mg1210   2.234       .  S
Mg1179     O1185   2.122   1_565  S
Mg1179     O2425   2.293       .  S
Mg1179     O2441   2.264       .  S
Mg1179     O1181   2.294   1_565  S
C1180      O1218   1.272       .  A
C1180      O1186   1.280       .  A
O1181      C1188   1.273       .  A
H1182      C1195   1.081       .  S
C1183      H1208   1.081       .  S
C1183      O2445   1.242       .  S
C1183      O1198   1.276       .  A
O1184      C1207   1.275   1_565  A
O1184     Mg2421   2.313       .  S
O1185     Mg1199   2.132       .  S
O1186     Mg1216   2.339       .  S
C1187      O1200   1.276       .  A
C1187      O1192   1.279       .  A
C1187      N1226   1.448       .  S
C1188      O1215   1.276       .  A
Mg1189     O1196   2.122   1_545  S
Mg1189     O1197   2.131       .  S
Mg1189     O1190   2.311   1_545  S
Mg1189     O1191   2.309       .  S
Mg1189     O1218   2.264       .  S
O1190      C2424   1.276       .  A
O1191      C1195   1.275       .  A
O1192     Mg1199   2.305       .  S
O1193      C1212   1.272       .  A
O1193     Mg2427   2.264       .  S
O1194      C1214   1.276       .  A
O1194     Mg1210   2.324       .  S
O1196     Mg2458   2.128       .  S
O1196      C1207   1.241   1_565  S
O1197     Mg1216   2.133       .  S
O1197      C2431   1.242   1_545  S
O1198     Mg1210   2.313       .  S
Mg1199     O1215   2.286       .  S
O1200     Mg1216   2.311       .  S
H1201      C1206   1.081       .  S
O1202     Mg1210   2.099       .  S
O1202      C1205   1.240       .  S
H1203      C1205   1.081       .  S
H1204      C1207   1.081       .  S
O1209     Mg1216   2.306       .  S
Mg1210     O2444   2.128       .  S
C1212      O1217   1.271       .  A
C1212      N1219   1.441       .  S
O1213      C1214   1.268       .  A
N1219      C1223   1.371       .  A
N1219      C1220   1.361       .  A
C1220      C1221   1.371       .  A
C1221      C1222   1.363       .  A
C1221      H1224   1.083       .  S
C1222      C1223   1.394       .  A
C1222      H1225   1.080       .  S
N1226      C1230   1.371       .  A
N1226      C1227   1.359       .  A
C1227      C1228   1.370       .  A
C1228      C1229   1.359       .  A
C1228      H1231   1.082       .  S
C1229      C1230   1.393       .  A
C1229      H1232   1.081       .  S
C1230      C1244   1.493       .  S
N1233      C1237   1.377       .  A
N1233      C1234   1.362       .  A
C1234      C1235   1.374       .  A
C1235      C1236   1.365       .  A
C1235      H1238   1.082       .  S
C1236      C1237   1.389       .  A
C1236      H1239   1.082       .  S
C1240      C1241   1.407       .  A
C1240      C1245   1.390       .  A
C1241      C1242   1.401       .  A
C1241      H1246   1.062       .  S
C1242      C1243   1.418       .  A
C1243      C1244   1.404       .  A
C1243      H1247   1.079       .  S
C1244      C1245   1.414       .  A
C1245      H1248   1.075       .  S
C1249      C1250   1.404       .  A
C1249      C1254   1.414       .  A
C1249      C1585   1.493       .  S
C1250      C1251   1.418       .  A
C1250      H1255   1.079       .  S
C1251      C1252   1.401       .  A
C1251      C1861   1.507       .  S
C1252      C1253   1.407       .  A
C1252      H1256   1.061       .  S
C1253      C1254   1.390       .  A
C1253      C1447   1.497       .  S
C1254      H1257   1.075       .  S
C1258      C1259   1.407       .  A
C1258      C1263   1.409       .  A
C1258      C1847   1.508       .  S
C1259      C1260   1.417       .  A
C1259      H1264   1.064       .  S
C1260      C1261   1.401       .  A
C1260      C1378   1.515       .  S
C1261      C1262   1.412       .  A
C1261      H1265   1.067       .  S
C1262      C1263   1.393       .  A
C1262      C1440   1.494       .  S
C1263      H1266   1.072       .  S
C1267      C1268   1.406       .  A
C1267      C1272   1.417       .  A
C1267      C1640   1.508       .  S
C1268      C1269   1.414       .  A
C1268      H1273   1.065       .  S
C1269      C1270   1.399       .  A
C1269      C1516   1.512       .  S
C1270      C1271   1.410       .  A
C1270      H1274   1.066       .  S
C1271      C1272   1.403       .  A
C1271      C1778   1.505       .  S
C1272      H1275   1.078       .  S
C1276      C1277   1.414       .  A
C1276      C1281   1.399       .  A
C1276      C1647   1.512       .  S
C1277      C1278   1.406       .  A
C1277      H1282   1.065       .  S
C1278      C1279   1.417       .  A
C1278      C1509   1.508       .  S
C1279      C1280   1.403       .  A
C1279      H1283   1.078       .  S
C1280      C1281   1.410       .  A
C1280      C1716   1.505       .  S
C1281      H1284   1.065       .  S
C1285      C1286   1.412       .  A
C1285      C1290   1.393       .  A
C1285      C1371   1.494       .  S
C1286      C1287   1.401       .  A
C1286      H1291   1.067       .  S
C1287      C1288   1.417       .  A
C1287      C1433   1.516       .  S
C1288      C1289   1.407       .  A
C1288      H1292   1.063       .  S
C1289      C1290   1.409       .  A
C1289      C1578   1.508       .  S
C1290      H1293   1.072       .  S
C1294      C1295   1.407       .  A
C1294      C1299   1.400       .  A
C1294      C1792   1.502       .  S
C1295      C1296   1.399       .  A
C1295      H1300   1.066       .  S
C1296      C1297   1.421       .  A
C1296      C1654   1.510       .  S
C1297      C1298   1.410       .  A
C1297      H1301   1.072       .  S
C1298      C1299   1.417       .  A
C1298      C1709   1.518       .  S
C1299      H1302   1.074       .  S
C1303      C1304   1.421       .  A
C1303      C1308   1.399       .  A
C1303      C1502   1.510       .  S
C1304      C1305   1.410       .  A
C1304      H1309   1.072       .  S
C1305      C1306   1.417       .  A
C1305      C1785   1.518       .  S
C1306      C1307   1.400       .  A
C1306      H1310   1.074       .  S
C1307      C1308   1.407       .  A
C1307      C1723   1.502       .  S
C1308      H1311   1.066       .  S
O1312     Mg1314   2.118       .  S
O1312     Mg1320   2.144       .  S
O1312      C1347   1.241       .  S
C1313      H1352   1.081       .  S
C1313      O1326   1.242       .  S
C1313      O1350   1.276       .  A
Mg1314     O3839   2.135       .  S
Mg1314     O1358   2.317       .  S
O1315     Mg1357   2.135       .  S
O1315     Mg1340   2.118       .  S
O1315      C1336   1.242       .  S
O1316      C1971   1.274       .  A
O1316     Mg3836   2.304       .  S
C1317      O1319   1.269       .  A
C1317      O1331   1.276       .  A
C1317      N1374   1.444       .  S
O1318      C1346   1.273       .  A
O1318     Mg3816   2.295       .  S
O1319     Mg1351   2.255   1_565  S
Mg1320     O3822   2.131       .  S
Mg1320     O3814   2.295       .  S
Mg1320     O1334   2.287       .  S
Mg1320     O1322   2.306       .  S
C1321      C1720   1.473   1_545  S
C1321      O1359   1.271   1_545  A
O1322      C1953   1.275       .  A
H1323      C1336   1.081       .  S
C1324      H1349   1.081       .  S
C1324      O1338   1.241       .  S
C1324      O1339   1.274       .  A
O1325      C3844   1.274       .  A
O1326     Mg3816   2.131       .  S
O1326     Mg1964   2.135       .  S
O1327     Mg1357   2.310       .  S
C1328      O1341   1.272       .  A
C1328      O1333   1.281       .  A
C1328      N1360   1.449       .  S
C1329      C1651   1.488       .  S
C1329      O1946   1.275       .  A
C1329      O1356   1.277       .  A
Mg1330     O1337   2.105   1_565  S
Mg1330     O1331   2.299       .  S
Mg1330     O1956   2.312   1_565  S
Mg1330     O1983   2.262       .  S
O1332     Mg1954   2.312   1_545  S
O1333     Mg1340   2.326       .  S
O1334      C1353   1.273       .  A
O1335      C3851   1.272       .  A
O1335     Mg1351   2.287   1_565  S
O1337     Mg1351   2.138       .  S
O1337      C1348   1.241   1_545  S
O1338     Mg1981   2.124       .  S
Mg1340     O1950   2.135       .  S
Mg1340     O3812   2.304   1_455  S
Mg1340     O3852   2.293       .  S
O1341     Mg1357   2.288       .  S
H1342      C1347   1.081       .  S
O1343     Mg3810   2.135   1_455  S
O1343      C1346   1.241       .  S
H1344      C1346   1.081       .  S
H1345      C1348   1.081       .  S
C1347      O1940   1.274       .  A
C1348      O3821   1.274       .  A
O1350     Mg1981   2.309       .  S
C1353      O1358   1.281       .  A
C1353      N1367   1.447       .  S
O1354      C1355   1.278       .  A
C1355      C1513   1.487       .  S
C1355      O3831   1.272       .  A
O1356     Mg3836   2.293       .  S
Mg1357     O1962   2.124       .  S
Mg1357     O1974   2.309       .  S
O1359     Mg1954   2.262       .  S
N1360      C1364   1.375       .  A
N1360      C1361   1.359       .  A
C1361      C1362   1.371       .  A
C1361      C1629   1.461       .  S
C1362      C1363   1.358       .  A
C1362      H1365   1.083       .  S
C1363      C1364   1.393       .  A
C1363      H1366   1.081       .  S
C1364      C1864   1.497       .  S
N1367      C1371   1.373       .  A
N1367      C1368   1.354       .  A
C1368      C1369   1.370       .  A
C1368      C1455   1.458       .  S
C1369      C1370   1.361       .  A
C1369      H1372   1.082       .  S
C1370      C1371   1.393       .  A
C1370      H1373   1.080       .  S
N1374      C1378   1.377       .  A
N1374      C1375   1.361       .  A
C1375      C1376   1.371       .  A
C1376      C1377   1.364       .  A
C1376      H1379   1.083   1_565  S
C1377      C1378   1.395       .  A
C1377      H1380   1.079       .  S
O1381     Mg1383   2.118   1_655  S
O1381     Mg3885   2.135       .  S
O1381      C1416   1.242   1_655  S
C1382      H1421   1.081       .  S
C1382      O1395   1.241       .  S
C1382      O1419   1.274       .  A
Mg1383     O1412   2.135       .  S
Mg1383     O1427   2.326   1_455  S
Mg1383     O1423   2.293       .  S
Mg1383     O1394   2.304       .  S
O1384     Mg1426   2.138       .  S
O1384     Mg3905   2.105       .  S
O1384      C1405   1.241   1_655  S
O1385      C1416   1.276   1_655  A
O1385     Mg3905   2.312       .  S
C1386      O1388   1.273       .  A
C1386      O1400   1.281       .  A
C1386      N1436   1.447       .  S
O1387      C1415   1.276       .  A
O1387     Mg1389   2.309       .  S
O1388     Mg1420   2.287       .  S
Mg1389     O3877   2.135       .  S
Mg1389     O1395   2.124       .  S
Mg1389     O1403   2.288       .  S
Mg1389     O1391   2.310       .  S
C1390      C1644   1.487       .  S
C1390      O1428   1.278       .  A
C1390      O1396   1.272       .  A
O1391      C1398   1.275       .  A
H1392      C1405   1.081       .  S
C1393      H1418   1.081   1_455  S
C1393      O1407   1.241       .  S
C1393      O1408   1.273       .  A
O1394      C1417   1.274       .  A
O1395     Mg1409   2.130       .  S
O1396     Mg1426   2.287   1_455  S
C1397      O1410   1.269       .  A
C1397      O1402   1.276       .  A
C1397      N1429   1.444       .  S
C1398      C1789   1.473       .  S
C1398      O1425   1.271       .  A
Mg1399     O1406   2.118       .  S
Mg1399     O1407   2.135       .  S
Mg1399     O1400   2.317       .  S
Mg1399     O1401   2.299       .  S
Mg1399     O1428   2.303       .  S
O1401      C1405   1.274       .  A
O1402     Mg1409   2.299       .  S
O1403      C1422   1.272       .  A
O1404      C1424   1.275       .  A
O1404     Mg1420   2.306       .  S
O1406     Mg1420   2.143       .  S
O1406      C1417   1.241       .  S
O1407     Mg1426   2.107   1_455  S
O1408     Mg1420   2.295       .  S
Mg1409     O3880   2.105       .  S
Mg1409     O3881   2.312       .  S
Mg1409     O1425   2.262       .  S
O1410     Mg3922   2.255       .  S
H1411      C1416   1.081       .  S
O1412     Mg1420   2.131       .  S
O1412      C3911   1.242   1_455  S
H1413      C1415   1.081       .  S
H1414      C1417   1.081       .  S
C1415      O3908   1.242       .  S
O1419     Mg3922   2.302       .  S
C1422      O3923   1.281       .  A
C1422      N1443   1.449       .  S
O1423      C1424   1.277       .  A
C1424      C1499   1.488       .  S
Mg1426     O3906   2.255       .  S
Mg1426     O3915   2.302       .  S
O1427      C3918   1.281       .  A
N1429      C1433   1.377       .  A
N1429      C1430   1.361       .  A
C1430      C1431   1.371       .  A
C1430      C1769   1.477       .  S
C1431      C1432   1.364       .  A
C1431      H1434   1.083       .  S
C1432      C1433   1.395       .  A
C1432      H1435   1.079       .  S
N1436      C1440   1.373       .  A
N1436      C1437   1.354       .  A
C1437      C1438   1.370       .  A
C1437      C1604   1.458       .  S
C1438      C1439   1.361       .  A
C1438      H1441   1.082       .  S
C1439      C1440   1.393       .  A
C1439      H1442   1.080       .  S
N1443      C1447   1.375       .  A
N1443      C1444   1.359       .  A
C1444      C1445   1.371       .  A
C1444      C1466   1.461       .  S
C1445      C1446   1.358       .  A
C1445      H1448   1.083       .  S
C1446      C1447   1.393       .  A
C1446      H1449   1.081       .  S
O1450     Mg1452   2.134       .  S
O1450     Mg1458   2.126       .  S
C1451      H1490   1.081       .  S
C1451      O3984   1.275   1_455  A
Mg1452     O1481   2.084       .  S
Mg1452     O1496   2.279       .  S
Mg1452     O1492   2.261       .  S
Mg1452     O1463   2.338       .  S
O1453     Mg3991   2.115   1_455  S
O1453     Mg1478   2.133       .  S
O1453      C1474   1.242       .  S
O1454      C1485   1.279       .  A
O1454     Mg1478   2.340       .  S
C1455      O3953   1.265       .  A
C1455      O1469   1.270       .  A
O1456      C1484   1.275       .  A
O1456     Mg1458   2.316       .  S
O1457      C3951   1.265       .  A
O1457     Mg1489   2.219       .  S
Mg1458     O1472   2.253       .  S
C1459      O1497   1.261       .  A
C1459      O1465   1.269       .  A
C1459      N1512   1.440       .  S
O1460      C1467   1.274       .  A
H1461      C1474   1.082       .  S
C1462      H1487   1.081       .  S
C1462      O1476   1.240       .  S
C1462      O3973   1.275       .  A
O1463      C1486   1.278       .  A
O1464     Mg1478   2.089       .  S
O1465     Mg1495   2.323       .  S
C1466      O1479   1.265       .  A
C1466      O3967   1.273       .  A
C1467      O1494   1.262       .  A
C1467      N1498   1.445       .  S
Mg1468     O1475   2.133       .  S
Mg1468     O3972   2.085       .  S
Mg1468     O3965   2.297       .  S
Mg1468     O2745   2.264   1_455  S
O1469     Mg3964   2.297       .  S
O1470      C1474   1.279       .  A
O1471      C3962   1.273   1_455  A
O1471     Mg1478   2.318       .  S
O1472      C1491   1.270       .  A
O1473      C1493   1.272       .  A
O1473     Mg1489   2.346       .  S
O1475     Mg1489   2.117       .  S
O1475      C1486   1.241       .  S
O1476     Mg3964   2.085       .  S
O1477      C3958   1.275   1_455  A
O1477     Mg1489   2.320       .  S
Mg1478     O1494   2.266       .  S
O1479     Mg1495   2.219       .  S
H1480      C1485   1.082       .  S
O1481     Mg1489   2.124       .  S
O1481      C1484   1.240       .  S
H1482      C1484   1.081       .  S
H1483      C1486   1.082       .  S
O1488      C3947   1.275       .  A
C1491      C1851   1.461       .  S
C1491      O1496   1.268       .  A
O1492      C1493   1.260       .  A
C1493      N1505   1.441       .  S
Mg1495     O3949   2.115       .  S
O1497     Mg2716   2.264   1_565  S
N1498      C1502   1.376       .  A
N1498      C1499   1.363       .  A
C1499      C1500   1.375       .  A
C1500      C1501   1.369       .  A
C1500      H1503   1.082       .  S
C1501      C1502   1.390       .  A
C1501      H1504   1.082       .  S
N1505      C1509   1.372       .  A
N1505      C1506   1.360       .  A
C1506      C1507   1.375       .  A
C1506      C1812   1.482       .  S
C1507      C1508   1.369       .  A
C1507      H1510   1.082       .  S
C1508      C1509   1.391       .  A
C1508      H1511   1.082       .  S
N1512      C1516   1.373       .  A
N1512      C1513   1.360       .  A
C1513      C1514   1.376       .  A
C1514      C1515   1.369       .  A
C1514      H1517   1.083       .  S
C1515      C1516   1.392       .  A
C1515      H1518   1.080       .  S
O1519     Mg1521   2.117   1_556  S
O1519     Mg2151   2.139       .  S
O1519      C1554   1.241   1_556  S
C1520      H1559   1.081       .  S
C1520      O1533   1.242       .  S
C1520      O1557   1.276       .  A
Mg1521     O1550   2.132       .  S
Mg1521     O1565   2.305   1_554  S
Mg1521     O1561   2.286       .  S
Mg1521     O1532   2.297       .  S
O1522     Mg1564   2.128       .  S
O1522     Mg2171   2.122       .  S
O1522      C1543   1.241   1_556  S
O1523      C1554   1.275   1_556  A
O1523     Mg2171   2.309       .  S
C1524      O1526   1.272       .  A
C1524      O1538   1.271       .  A
C1524      N1574   1.441       .  S
O1525      C1553   1.275       .  A
O1525     Mg1527   2.306       .  S
O1526     Mg1558   2.264       .  S
Mg1527     O2143   2.139       .  S
Mg1527     O1533   2.133       .  S
Mg1527     O1541   2.311       .  S
Mg1527     O1529   2.339       .  S
C1528      C1713   1.474       .  S
C1528      O1566   1.268       .  A
C1528      O1534   1.276       .  A
O1529      C1536   1.280       .  A
H1530      C1543   1.081       .  S
C1531      H1556   1.081   1_554  S
C1531      O1545   1.240       .  S
C1531      O1546   1.272       .  A
O1532      C1555   1.273       .  A
O1533     Mg1547   2.131       .  S
O1534     Mg1564   2.325   1_554  S
C1535      O1548   1.267       .  A
C1535      O1540   1.276       .  A
C1535      N1567   1.448       .  S
C1536      C1782   1.480       .  S
C1536      O1563   1.272       .  A
Mg1537     O1544   2.099       .  S
Mg1537     O1545   2.122       .  S
Mg1537     O1538   2.273       .  S
Mg1537     O1539   2.313       .  S
Mg1537     O1566   2.256       .  S
O1539      C1543   1.275       .  A
O1540     Mg1547   2.310       .  S
O1541      C1560   1.276       .  A
O1542      C1562   1.273       .  A
O1542     Mg1558   2.294       .  S
O1544     Mg1558   2.141       .  S
O1544      C1555   1.240       .  S
O1545     Mg1564   2.099   1_554  S
O1546     Mg1558   2.293       .  S
Mg1547     O2146   2.122       .  S
Mg1547     O2147   2.309       .  S
Mg1547     O1563   2.264       .  S
O1548     Mg2188   2.234       .  S
H1549      C1554   1.081       .  S
O1550     Mg1558   2.122       .  S
O1550      C2177   1.242   1_554  S
H1551      C1553   1.081       .  S
H1552      C1555   1.081       .  S
C1553      O2174   1.242       .  S
O1557     Mg2188   2.313       .  S
C1560      O2189   1.279       .  A
C1560      N1581   1.448       .  S
O1561      C1562   1.276       .  A
C1562      C1637   1.482       .  S
Mg1564     O2172   2.234       .  S
Mg1564     O2181   2.313       .  S
O1565      C2184   1.279       .  A
N1567      C1571   1.377       .  A
N1567      C1568   1.362       .  A
C1568      C1569   1.374       .  A
C1568      C1743   1.479       .  S
C1569      C1570   1.365       .  A
C1569      H1572   1.082       .  S
C1570      C1571   1.389       .  A
C1570      H1573   1.082       .  S
C1571      C1866   1.507       .  S
N1574      C1578   1.371       .  A
N1574      C1575   1.361       .  A
C1575      C1576   1.371       .  A
C1575      C1674   1.474       .  S
C1576      C1577   1.363       .  A
C1576      H1579   1.083       .  S
C1577      C1578   1.394       .  A
C1577      H1580   1.080       .  S
N1581      C1585   1.372       .  A
N1581      C1582   1.359       .  A
C1582      C1583   1.370       .  A
C1582      C1593   1.461       .  S
C1583      C1584   1.359       .  A
C1583      H1586   1.082       .  S
C1584      C1585   1.393       .  A
C1584      H1587   1.081       .  S
O1588     Mg1590   2.133       .  S
O1588     Mg1596   2.115       .  S
O1588      C1623   1.242       .  S
C1589      H1628   1.081       .  S
C1589      O1602   1.240       .  S
C1589      O1626   1.275       .  A
Mg1590     O2243   2.089       .  S
Mg1590     O2258   2.318       .  S
Mg1590     O4750   2.266   1_454  S
Mg1590     O4097   2.340   1_455  S
O1591     Mg1633   2.117   1_655  S
O1591     Mg1616   2.133   1_655  S
O1591      C4108   1.241       .  S
O1592      C1623   1.279       .  A
O1592     Mg1616   2.340       .  S
C1593      O1595   1.270       .  A
C1593      O2231   1.268       .  A
O1594      C2246   1.275   1_554  A
O1594     Mg1596   2.316       .  S
O1595     Mg1627   2.253       .  S
Mg1596     O1602   2.128       .  S
Mg1596     O1610   2.219       .  S
Mg1596     O1598   2.323       .  S
C1597      O1635   1.260       .  A
C1597      O1603   1.272       .  A
C1597      N1636   1.441       .  S
O1598      C1605   1.269       .  A
H1599      C1612   1.082       .  S
C1600      H1625   1.081   1_655  S
C1600      O4110   1.240       .  S
C1600      O2239   1.275       .  A
O1601      C1624   1.279       .  A
O1601     Mg4086   2.340       .  S
O1602     Mg1616   2.085       .  S
O1603     Mg4129   2.346       .  S
C1604      O1617   1.265       .  A
C1604      O1609   1.270       .  A
C1605      O1632   1.261       .  A
C1605      N1643   1.440       .  S
Mg1606     O1613   2.134       .  S
Mg1606     O1614   2.084       .  S
Mg1606     O1607   2.279       .  S
Mg1606     O1608   2.338       .  S
Mg1606     O1635   2.261       .  S
O1607      C2217   1.268   1_554  A
O1608      C1612   1.278       .  A
O1609     Mg1616   2.297       .  S
O1610      C2253   1.265       .  A
O1611      C1631   1.274       .  A
O1611     Mg1627   2.350       .  S
C1612      O4087   1.241       .  S
O1613     Mg2251   2.126   1_554  S
O1613      C1624   1.242       .  S
O1614     Mg4129   2.124       .  S
O1614      C4096   1.240       .  S
O1615      C2224   1.275       .  A
O1615     Mg4123   2.316       .  S
Mg1616     O1632   2.264       .  S
O1617     Mg1633   2.219       .  S
H1618      C1623   1.082       .  S
O1619     Mg2214   2.089       .  S
O1619     Mg4123   2.135   1_455  S
O1619      C1622   1.240       .  S
H1620      C1622   1.081       .  S
H1621      C1624   1.082       .  S
C1622      O2218   1.275       .  A
O1626     Mg1633   2.320       .  S
Mg1627     O2237   2.126       .  S
Mg1627     O4115   2.135       .  S
Mg1627     O4111   2.316       .  S
C1629      O2234   1.265       .  A
C1629      O1634   1.273       .  A
O1630      C1631   1.262       .  A
O1630     Mg4710   2.266       .  S
C1631      N1650   1.445       .  S
Mg1633     O4110   2.124   1_455  S
Mg1633     O4099   2.346   1_455  S
O1634     Mg2214   2.318       .  S
N1636      C1640   1.372       .  A
N1636      C1637   1.360       .  A
C1637      C1638   1.375       .  A
C1638      C1639   1.369       .  A
C1638      H1641   1.082       .  S
C1639      C1640   1.391       .  A
C1639      H1642   1.082       .  S
N1643      C1647   1.373       .  A
N1643      C1644   1.360       .  A
C1644      C1645   1.376       .  A
C1645      C1646   1.369       .  A
C1645      H1648   1.083       .  S
C1646      C1647   1.392       .  A
C1646      H1649   1.080       .  S
N1650      C1654   1.376       .  A
N1650      C1651   1.363       .  A
C1651      C1652   1.375       .  A
C1652      C1653   1.369       .  A
C1652      H1655   1.082       .  S
C1653      C1654   1.390       .  A
C1653      H1656   1.082       .  S
O1657     Mg2283   2.114       .  S
O1657     Mg1665   2.134       .  S
O1657      C1692   1.241   1_556  S
C1658      H1697   1.081   1_554  S
C1658      O1671   1.242       .  S
C1658      O1695   1.275       .  A
Mg1659     O2281   2.114       .  S
Mg1659     O1688   2.136       .  S
Mg1659     O1703   2.309       .  S
O1660     Mg1702   2.135       .  S
O1660     Mg1685   2.100       .  S
O1660      C1681   1.241       .  S
O1661      C1692   1.274       .  A
O1661     Mg1685   2.309       .  S
C1662      O1664   1.271       .  A
C1662      O2300   1.275       .  A
C1662      N1719   1.444       .  S
O1663      C1691   1.274       .  A
O1663     Mg2289   2.301       .  S
Mg1665     O1671   2.122   1_556  S
Mg1665     O2287   2.301       .  S
Mg1665     O2303   2.265       .  S
Mg1665     O1667   2.302   1_556  S
C1666      O1672   1.274       .  A
O1667      C1674   1.274       .  A
H1668      C1681   1.081       .  S
C1669      H1694   1.081       .  S
C1669      O2307   1.242       .  S
C1669      O1684   1.274       .  A
O1670      C1693   1.273       .  A
O1671     Mg1685   2.129       .  S
O1672     Mg1702   2.303       .  S
C1673      O1686   1.272       .  A
C1673      O1678   1.274       .  A
C1673      N1712   1.444       .  S
C1674      O1701   1.271       .  A
Mg1675     O1682   2.106   1_564  S
Mg1675     O1676   2.292   1_554  S
Mg1675     O1677   2.305   1_565  S
Mg1675     O1704   2.267       .  S
O1676      C2286   1.275       .  A
O1678     Mg1685   2.290       .  S
O1679      C1698   1.271       .  A
O1679     Mg2289   2.265       .  S
O1680      C1700   1.274       .  A
O1682      C1693   1.240   1_545  S
O1683     Mg1702   2.118       .  S
O1683      C2293   1.242   1_554  S
O1684     Mg1696   2.304       .  S
Mg1685     O1701   2.264       .  S
O1686     Mg1702   2.281       .  S
H1687      C1692   1.081       .  S
O1688     Mg1696   2.116       .  S
O1688      C1691   1.242       .  S
H1689      C1691   1.081       .  S
H1690      C1693   1.081   1_554  S
O1695     Mg1702   2.308       .  S
C1698      O1703   1.277       .  A
C1698      N1705   1.445       .  S
O1699      C1700   1.275   1_545  A
C1700      C1858   1.479       .  S
N1705      C1709   1.377       .  A
N1705      C1706   1.366       .  A
C1706      C1707   1.370       .  A
C1706      C1804   1.480       .  S
C1707      C1708   1.363       .  A
C1707      H1710   1.083       .  S
C1708      C1709   1.395       .  A
C1708      H1711   1.080       .  S
N1712      C1716   1.372       .  A
N1712      C1713   1.364       .  A
C1713      C1714   1.371       .  A
C1714      C1715   1.363       .  A
C1714      H1717   1.083       .  S
C1715      C1716   1.394       .  A
C1715      H1718   1.081       .  S
N1719      C1723   1.371       .  A
N1719      C1720   1.361       .  A
C1720      C1721   1.373       .  A
C1721      C1722   1.365       .  A
C1721      H1724   1.083   1_565  S
C1722      C1723   1.393       .  A
C1722      H1725   1.081       .  S
O1726     Mg1728   2.106       .  S
O1726     Mg1734   2.135       .  S
O1726      C1761   1.240       .  S
C1727      H1766   1.081       .  S
C1727      O1740   1.242       .  S
C1727      O1764   1.274       .  A
Mg1728     O1757   2.130       .  S
Mg1728     O1772   2.292       .  S
Mg1728     O1768   2.267       .  S
Mg1728     O1739   2.305       .  S
O1729     Mg1771   2.134       .  S
O1729     Mg1754   2.114       .  S
O1729      C1750   1.241       .  S
O1730      C1761   1.273       .  A
O1730     Mg1754   2.301       .  S
C1731      O1733   1.272       .  A
C1731      O1745   1.274       .  A
C1731      N1774   1.444       .  S
O1732      C1760   1.274       .  A
O1732     Mg1734   2.304       .  S
O1733     Mg1765   2.281       .  S
Mg1734     O1740   2.116       .  S
Mg1734     O1748   2.276       .  S
Mg1734     O1736   2.297       .  S
C1735      C1844   1.474       .  S
C1735      O1773   1.271       .  A
C1735      O1741   1.274       .  A
O1736      C1743   1.274       .  A
H1737      C1750   1.081       .  S
C1738      H1763   1.081       .  S
C1738      O1752   1.242       .  S
C1738      O1753   1.275       .  A
O1739      C1762   1.274       .  A
O1740     Mg1754   2.136       .  S
O1741     Mg1771   2.302       .  S
C1742      O1755   1.271       .  A
C1742      O1747   1.277       .  A
C1742      N1781   1.445       .  S
C1743      O1770   1.275       .  A
Mg1744     O1751   2.100       .  S
Mg1744     O1752   2.129       .  S
Mg1744     O1745   2.290       .  S
Mg1744     O1746   2.309       .  S
Mg1744     O1773   2.264       .  S
O1746      C1750   1.274       .  A
O1747     Mg1754   2.308       .  S
O1748      C1767   1.271       .  A
O1749      C1769   1.274       .  A
O1749     Mg1765   2.303       .  S
O1751     Mg1765   2.135       .  S
O1751      C1762   1.241       .  S
O1752     Mg1771   2.122       .  S
O1753     Mg1765   2.308       .  S
Mg1754     O1770   2.280       .  S
O1755     Mg1771   2.265       .  S
H1756      C1761   1.081       .  S
O1757     Mg1765   2.118       .  S
O1757      C1760   1.242       .  S
H1758      C1760   1.081       .  S
H1759      C1762   1.081       .  S
O1764     Mg1771   2.301       .  S
C1767      O1772   1.275       .  A
C1767      N1788   1.444       .  S
O1768      C1769   1.272       .  A
N1774      C1778   1.372       .  A
N1774      C1775   1.364       .  A
C1775      C1776   1.371       .  A
C1775      C1838   1.473       .  S
C1776      C1777   1.363       .  A
C1776      H1779   1.083       .  S
C1777      C1778   1.394       .  A
C1777      H1780   1.081       .  S
N1781      C1785   1.377       .  A
N1781      C1782   1.366       .  A
C1782      C1783   1.370       .  A
C1783      C1784   1.363       .  A
C1783      H1786   1.083       .  S
C1784      C1785   1.395       .  A
C1784      H1787   1.080       .  S
N1788      C1792   1.371       .  A
N1788      C1789   1.361       .  A
C1789      C1790   1.373       .  A
C1790      C1791   1.365       .  A
C1790      H1793   1.083       .  S
C1791      C1792   1.393       .  A
C1791      H1794   1.081       .  S
O1795     Mg1803   2.141       .  S
O1795      C1830   1.240       .  S
C1796      H1835   1.081       .  S
C1796      O1809   1.242       .  S
C1796      O1833   1.275       .  A
Mg1797     O1826   2.122       .  S
Mg1797     O1841   2.273       .  S
Mg1797     O1837   2.256       .  S
O1798     Mg1840   2.139       .  S
O1798     Mg1823   2.117       .  S
O1798      C1819   1.241       .  S
O1799      C1830   1.273       .  A
O1799     Mg1823   2.297       .  S
C1800      O1802   1.267       .  A
C1800      N1857   1.448       .  S
O1801      C1829   1.272       .  A
O1802     Mg1834   2.234       .  S
Mg1803     O1809   2.122       .  S
Mg1803     O1805   2.294       .  S
C1804      O1842   1.272       .  A
C1804      O1810   1.280       .  A
O1805      C1812   1.273       .  A
H1806      C1819   1.081       .  S
C1807      H1832   1.081       .  S
C1807      O1822   1.276       .  A
O1808      C1831   1.275       .  A
O1809     Mg1823   2.132       .  S
O1810     Mg1840   2.339       .  S
C1811      O1824   1.276       .  A
C1811      O1816   1.279       .  A
C1811      N1850   1.448       .  S
C1812      O1839   1.276       .  A
Mg1813     O1820   2.122       .  S
Mg1813     O1821   2.131       .  S
Mg1813     O1814   2.311       .  S
Mg1813     O1815   2.309       .  S
Mg1813     O1842   2.264       .  S
O1815      C1819   1.275       .  A
O1816     Mg1823   2.305       .  S
O1817      C1836   1.272       .  A
O1818      C1838   1.276       .  A
O1818     Mg1834   2.324       .  S
O1820      C1831   1.241       .  S
O1821     Mg1840   2.133       .  S
O1822     Mg1834   2.313       .  S
Mg1823     O1839   2.286       .  S
O1824     Mg1840   2.311       .  S
H1825      C1830   1.081       .  S
O1826     Mg1834   2.099       .  S
O1826      C1829   1.240       .  S
H1827      C1829   1.081       .  S
H1828      C1831   1.081       .  S
O1833     Mg1840   2.306       .  S
C1836      O1841   1.271       .  A
C1836      N1843   1.441       .  S
O1837      C1838   1.268       .  A
N1843      C1847   1.371       .  A
N1843      C1844   1.361       .  A
C1844      C1845   1.371       .  A
C1845      C1846   1.363       .  A
C1845      H1848   1.083       .  S
C1846      C1847   1.394       .  A
C1846      H1849   1.080       .  S
N1850      C1854   1.371       .  A
N1850      C1851   1.359       .  A
C1851      C1852   1.370       .  A
C1852      C1853   1.359       .  A
C1852      H1855   1.082       .  S
C1853      C1854   1.393       .  A
C1853      H1856   1.081       .  S
C1854      C1868   1.493       .  S
N1857      C1861   1.377       .  A
N1857      C1858   1.362       .  A
C1858      C1859   1.374       .  A
C1859      C1860   1.365       .  A
C1859      H1862   1.082       .  S
C1860      C1861   1.389       .  A
C1860      H1863   1.082       .  S
C1864      C1865   1.407       .  A
C1864      C1869   1.390       .  A
C1865      C1866   1.401       .  A
C1865      H1870   1.062       .  S
C1866      C1867   1.418       .  A
C1867      C1868   1.404       .  A
C1867      H1871   1.079       .  S
C1868      C1869   1.414       .  A
C1869      H1872   1.075       .  S
C1873      C1874   1.404       .  A
C1873      C1878   1.414       .  A
C1873      C2209   1.493       .  S
C1874      C1875   1.418       .  A
C1874      H1879   1.079       .  S
C1875      C1876   1.401       .  A
C1875      C2485   1.507       .  S
C1876      C1877   1.407       .  A
C1876      H1880   1.062       .  S
C1877      C1878   1.390       .  A
C1877      C2071   1.497       .  S
C1878      H1881   1.075       .  S
C1882      C1883   1.407       .  A
C1882      C1887   1.409       .  A
C1882      C2471   1.508       .  S
C1883      C1884   1.417       .  A
C1883      H1888   1.064       .  S
C1884      C1885   1.401       .  A
C1884      C2002   1.515       .  S
C1885      C1886   1.412       .  A
C1885      H1889   1.067       .  S
C1886      C1887   1.393       .  A
C1886      C2064   1.494       .  S
C1887      H1890   1.072       .  S
C1891      C1892   1.406       .  A
C1891      C1896   1.417       .  A
C1891      C2264   1.508       .  S
C1892      C1893   1.414       .  A
C1892      H1897   1.065       .  S
C1893      C1894   1.399       .  A
C1893      C2140   1.512       .  S
C1894      C1895   1.410       .  A
C1894      H1898   1.066       .  S
C1895      C1896   1.403       .  A
C1895      C2402   1.505       .  S
C1896      H1899   1.078       .  S
C1900      C1901   1.414       .  A
C1900      C1905   1.399       .  A
C1900      C2271   1.512       .  S
C1901      C1902   1.406       .  A
C1901      H1906   1.065       .  S
C1902      C1903   1.417       .  A
C1902      C2133   1.508       .  S
C1903      C1904   1.403       .  A
C1903      H1907   1.078       .  S
C1904      C1905   1.410       .  A
C1904      C2340   1.505       .  S
C1905      H1908   1.065       .  S
C1909      C1910   1.412       .  A
C1909      C1914   1.393       .  A
C1909      C1995   1.494       .  S
C1910      C1911   1.401       .  A
C1910      H1915   1.067       .  S
C1911      C1912   1.417       .  A
C1911      C2057   1.516       .  S
C1912      C1913   1.407       .  A
C1912      H1916   1.063       .  S
C1913      C1914   1.409       .  A
C1913      C2202   1.508       .  S
C1914      H1917   1.072       .  S
C1918      C1919   1.407       .  A
C1918      C1923   1.400       .  A
C1918      C2416   1.502       .  S
C1919      C1920   1.399       .  A
C1919      H1924   1.066       .  S
C1920      C1921   1.421       .  A
C1920      C2278   1.510       .  S
C1921      C1922   1.410       .  A
C1921      H1925   1.072       .  S
C1922      C1923   1.417       .  A
C1922      C2333   1.518       .  S
C1923      H1926   1.074       .  S
C1927      C1928   1.421       .  A
C1927      C1932   1.399       .  A
C1927      C2126   1.510       .  S
C1928      C1929   1.410       .  A
C1928      H1933   1.072       .  S
C1929      C1930   1.417       .  A
C1929      C2409   1.518       .  S
C1930      C1931   1.400       .  A
C1930      H1934   1.074       .  S
C1931      C1932   1.407       .  A
C1931      C2347   1.502       .  S
C1932      H1935   1.066       .  S
O1936     Mg1938   2.118       .  S
O1936     Mg1944   2.144       .  S
O1936      C1971   1.241       .  S
C1937      H1976   1.081       .  S
C1937      O1950   1.242       .  S
C1937      O1974   1.276       .  A
Mg1938     O4463   2.135       .  S
Mg1938     O1982   2.317       .  S
O1939     Mg1981   2.135       .  S
O1939     Mg1964   2.118       .  S
O1939      C1960   1.242   1_554  S
O1940     Mg4460   2.304       .  S
C1941      O1943   1.269       .  A
C1941      O1955   1.276       .  A
C1941      N1998   1.444       .  S
O1942      C1970   1.273       .  A
O1942     Mg4440   2.295       .  S
O1943     Mg1975   2.255   1_565  S
Mg1944     O4446   2.131       .  S
Mg1944     O4438   2.295       .  S
Mg1944     O1958   2.287       .  S
Mg1944     O1946   2.306       .  S
C1945      C2344   1.473   1_545  S
C1945      O1983   1.271   1_546  A
H1947      C1960   1.081       .  S
C1948      H1973   1.081       .  S
C1948      O1962   1.241       .  S
C1948      O1963   1.274       .  A
O1949      C4468   1.274       .  A
O1950     Mg4440   2.131       .  S
O1951     Mg1981   2.310   1_556  S
C1952      O1965   1.272       .  A
C1952      O1957   1.281       .  A
C1952      N1984   1.449       .  S
C1953      C2275   1.488       .  S
C1953      O1980   1.277   1_554  A
Mg1954     O1961   2.105   1_565  S
Mg1954     O1955   2.299       .  S
O1957     Mg1964   2.326   1_556  S
O1958      C1977   1.273       .  A
O1959      C4475   1.272       .  A
O1959     Mg1975   2.287   1_565  S
O1961     Mg1975   2.138       .  S
O1961      C1972   1.241   1_545  S
Mg1964     O4436   2.304   1_455  S
Mg1964     O4476   2.293   1_554  S
O1965     Mg1981   2.288   1_556  S
H1966      C1971   1.081       .  S
O1967     Mg4434   2.135   1_455  S
O1967      C1970   1.241       .  S
H1968      C1970   1.081       .  S
H1969      C1972   1.081       .  S
C1972      O4445   1.274       .  A
C1977      O1982   1.281       .  A
C1977      N1991   1.447       .  S
O1978      C1979   1.278       .  A
C1979      C2137   1.487       .  S
C1979      O4455   1.272       .  A
O1980     Mg4460   2.293   1_556  S
N1984      C1988   1.375       .  A
N1984      C1985   1.359       .  A
C1985      C1986   1.371       .  A
C1985      C2253   1.461   1_556  S
C1986      C1987   1.358       .  A
C1986      H1989   1.083       .  S
C1987      C1988   1.393       .  A
C1987      H1990   1.081       .  S
C1988      C2488   1.497       .  S
N1991      C1995   1.373       .  A
N1991      C1992   1.354       .  A
C1992      C1993   1.370       .  A
C1992      C2079   1.458       .  S
C1993      C1994   1.361       .  A
C1993      H1996   1.082       .  S
C1994      C1995   1.393       .  A
C1994      H1997   1.080       .  S
N1998      C2002   1.377       .  A
N1998      C1999   1.361       .  A
C1999      C2000   1.371       .  A
C2000      C2001   1.364       .  A
C2000      H2003   1.083   1_565  S
C2001      C2002   1.395       .  A
C2001      H2004   1.079       .  S
O2005     Mg2007   2.118   1_655  S
O2005     Mg4509   2.135       .  S
O2005      C2040   1.242   1_655  S
C2006      H2045   1.081       .  S
C2006      O2019   1.241       .  S
C2006      O2043   1.274       .  A
Mg2007     O2036   2.135       .  S
Mg2007     O2051   2.326   1_455  S
Mg2007     O2047   2.293       .  S
Mg2007     O2018   2.304       .  S
O2008     Mg2050   2.138       .  S
O2008     Mg4529   2.105       .  S
O2008      C2029   1.241   1_655  S
O2009      C2040   1.276   1_655  A
O2009     Mg4529   2.312       .  S
C2010      O2012   1.273       .  A
C2010      O2024   1.281       .  A
C2010      N2060   1.447       .  S
O2011      C2039   1.276       .  A
O2011     Mg2013   2.309       .  S
O2012     Mg2044   2.287       .  S
Mg2013     O4501   2.135       .  S
Mg2013     O2019   2.124       .  S
Mg2013     O2027   2.288       .  S
Mg2013     O2015   2.310       .  S
C2014      C2268   1.487       .  S
C2014      O2052   1.278       .  A
C2014      O2020   1.272       .  A
O2015      C2022   1.275       .  A
H2016      C2029   1.081       .  S
C2017      H2042   1.081   1_455  S
C2017      O2031   1.241       .  S
C2017      O2032   1.273       .  A
O2018      C2041   1.274       .  A
O2019     Mg2033   2.130       .  S
O2020     Mg2050   2.287   1_455  S
C2021      O2034   1.269       .  A
C2021      O2026   1.276       .  A
C2021      N2053   1.444       .  S
C2022      C2413   1.473       .  S
C2022      O2049   1.271       .  A
Mg2023     O2030   2.118       .  S
Mg2023     O2031   2.135       .  S
Mg2023     O2024   2.317       .  S
Mg2023     O2025   2.299       .  S
Mg2023     O2052   2.303       .  S
O2025      C2029   1.274       .  A
O2026     Mg2033   2.299       .  S
O2027      C2046   1.272       .  A
O2028      C2048   1.275       .  A
O2028     Mg2044   2.306       .  S
O2030     Mg2044   2.143       .  S
O2030      C2041   1.241       .  S
O2031     Mg2050   2.107   1_455  S
O2032     Mg2044   2.295       .  S
Mg2033     O4504   2.105       .  S
Mg2033     O4505   2.312       .  S
Mg2033     O2049   2.262       .  S
O2034     Mg4546   2.255       .  S
H2035      C2040   1.081       .  S
O2036     Mg2044   2.131       .  S
O2036      C4535   1.242   1_455  S
H2037      C2039   1.081       .  S
H2038      C2041   1.081       .  S
C2039      O4532   1.242       .  S
O2043     Mg4546   2.302       .  S
C2046      O4547   1.281       .  A
C2046      N2067   1.449       .  S
O2047      C2048   1.277       .  A
C2048      C2123   1.488       .  S
Mg2050     O4530   2.255       .  S
Mg2050     O4539   2.302       .  S
O2051      C4542   1.281       .  A
N2053      C2057   1.377       .  A
N2053      C2054   1.361       .  A
C2054      C2055   1.371       .  A
C2054      C2393   1.477       .  S
C2055      C2056   1.364       .  A
C2055      H2058   1.083       .  S
C2056      C2057   1.395       .  A
C2056      H2059   1.079       .  S
N2060      C2064   1.373       .  A
N2060      C2061   1.354       .  A
C2061      C2062   1.370       .  A
C2061      C2228   1.458       .  S
C2062      C2063   1.361       .  A
C2062      H2065   1.082       .  S
C2063      C2064   1.393       .  A
C2063      H2066   1.080       .  S
N2067      C2071   1.375       .  A
N2067      C2068   1.359       .  A
C2068      C2069   1.371       .  A
C2068      C2090   1.461       .  S
C2069      C2070   1.358       .  A
C2069      H2072   1.083       .  S
C2070      C2071   1.393       .  A
C2070      H2073   1.081       .  S
O2074     Mg2076   2.134       .  S
O2074     Mg2082   2.126       .  S
C2075      H2114   1.081       .  S
C2075      O4608   1.275   1_455  A
Mg2076     O2105   2.084       .  S
Mg2076     O2120   2.279       .  S
Mg2076     O2116   2.261       .  S
Mg2076     O2087   2.338       .  S
O2077     Mg4615   2.115   1_455  S
O2077     Mg2102   2.133       .  S
O2077      C2098   1.242       .  S
O2078      C2109   1.279       .  A
O2078     Mg2102   2.340       .  S
C2079      O4577   1.265       .  A
C2079      O2093   1.270       .  A
O2080      C2108   1.275       .  A
O2080     Mg2082   2.316       .  S
O2081      C4575   1.265       .  A
O2081     Mg2113   2.219       .  S
Mg2082     O2096   2.253       .  S
C2083      O2121   1.261       .  A
C2083      O2089   1.269       .  A
C2083      N2136   1.440       .  S
O2084      C2091   1.274       .  A
H2085      C2098   1.082       .  S
C2086      H2111   1.081       .  S
C2086      O2100   1.240       .  S
C2086      O4597   1.275       .  A
O2087      C2110   1.278       .  A
O2088     Mg2102   2.089       .  S
O2089     Mg2119   2.323       .  S
C2090      O2103   1.265       .  A
C2090      O4591   1.273       .  A
C2091      O2118   1.262       .  A
C2091      N2122   1.445       .  S
Mg2092     O2099   2.133       .  S
Mg2092     O4596   2.085       .  S
Mg2092     O4589   2.297       .  S
Mg2092     O3369   2.264   1_455  S
O2093     Mg4588   2.297       .  S
O2094      C2098   1.279       .  A
O2095      C4586   1.273   1_455  A
O2095     Mg2102   2.318       .  S
O2096      C2115   1.270       .  A
O2097      C2117   1.272       .  A
O2097     Mg2113   2.346       .  S
O2099     Mg2113   2.117       .  S
O2099      C2110   1.241       .  S
O2100     Mg4588   2.085       .  S
O2101      C4582   1.275   1_455  A
O2101     Mg2113   2.320       .  S
Mg2102     O2118   2.266       .  S
O2103     Mg2119   2.219       .  S
H2104      C2109   1.082       .  S
O2105     Mg2113   2.124       .  S
O2105      C2108   1.240       .  S
H2106      C2108   1.081       .  S
H2107      C2110   1.082       .  S
O2112      C4571   1.275       .  A
C2115      C2475   1.461       .  S
C2115      O2120   1.268       .  A
O2116      C2117   1.260       .  A
C2117      N2129   1.441       .  S
Mg2119     O4573   2.115       .  S
O2121     Mg3340   2.264   1_565  S
N2122      C2126   1.376       .  A
N2122      C2123   1.363       .  A
C2123      C2124   1.375       .  A
C2124      C2125   1.369       .  A
C2124      H2127   1.082       .  S
C2125      C2126   1.390       .  A
C2125      H2128   1.082       .  S
N2129      C2133   1.372       .  A
N2129      C2130   1.360       .  A
C2130      C2131   1.375       .  A
C2130      C2436   1.482       .  S
C2131      C2132   1.369       .  A
C2131      H2134   1.082       .  S
C2132      C2133   1.391       .  A
C2132      H2135   1.082       .  S
N2136      C2140   1.373       .  A
N2136      C2137   1.360       .  A
C2137      C2138   1.376       .  A
C2138      C2139   1.369       .  A
C2138      H2141   1.083       .  S
C2139      C2140   1.392       .  A
C2139      H2142   1.080       .  S
O2143     Mg2145   2.117       .  S
O2143      C2178   1.241       .  S
C2144      H2183   1.081       .  S
C2144      O2157   1.242       .  S
C2144      O2181   1.276       .  A
Mg2145     O2174   2.132       .  S
Mg2145     O2189   2.305       .  S
Mg2145     O2185   2.286       .  S
Mg2145     O2156   2.297       .  S
O2146     Mg2188   2.128       .  S
O2146      C2167   1.241       .  S
O2147      C2178   1.275       .  A
C2148      O2150   1.272       .  A
C2148      O2162   1.271       .  A
C2148      N2198   1.441       .  S
O2149      C2177   1.275       .  A
O2149     Mg2151   2.306       .  S
O2150     Mg2182   2.264       .  S
Mg2151     O2157   2.133       .  S
Mg2151     O2165   2.311       .  S
Mg2151     O2153   2.339       .  S
C2152      C2337   1.474       .  S
C2152      O2190   1.268       .  A
C2152      O2158   1.276       .  A
O2153      C2160   1.280       .  A
H2154      C2167   1.081       .  S
C2155      H2180   1.081       .  S
C2155      O2169   1.240       .  S
C2155      O2170   1.272       .  A
O2156      C2179   1.273       .  A
O2157     Mg2171   2.131       .  S
O2158     Mg2188   2.325       .  S
C2159      O2172   1.267       .  A
C2159      O2164   1.276       .  A
C2159      N2191   1.448       .  S
C2160      C2406   1.480       .  S
C2160      O2187   1.272       .  A
Mg2161     O2168   2.099       .  S
Mg2161     O2169   2.122       .  S
Mg2161     O2162   2.273       .  S
Mg2161     O2163   2.313       .  S
Mg2161     O2190   2.256       .  S
O2163      C2167   1.275       .  A
O2164     Mg2171   2.310       .  S
O2165      C2184   1.276       .  A
O2166      C2186   1.273       .  A
O2166     Mg2182   2.294       .  S
O2168     Mg2182   2.141       .  S
O2168      C2179   1.240       .  S
O2169     Mg2188   2.099       .  S
O2170     Mg2182   2.293       .  S
Mg2171     O2187   2.264       .  S
H2173      C2178   1.081       .  S
O2174     Mg2182   2.122       .  S
H2175      C2177   1.081       .  S
H2176      C2179   1.081       .  S
C2184      N2205   1.448       .  S
O2185      C2186   1.276       .  A
C2186      C2261   1.482       .  S
N2191      C2195   1.377       .  A
N2191      C2192   1.362       .  A
C2192      C2193   1.374       .  A
C2192      C2367   1.479       .  S
C2193      C2194   1.366       .  A
C2193      H2196   1.082       .  S
C2194      C2195   1.389       .  A
C2194      H2197   1.082       .  S
C2195      C2490   1.507       .  S
N2198      C2202   1.371       .  A
N2198      C2199   1.361       .  A
C2199      C2200   1.371       .  A
C2199      C2298   1.474       .  S
C2200      C2201   1.363       .  A
C2200      H2203   1.083       .  S
C2201      C2202   1.394       .  A
C2201      H2204   1.080       .  S
N2205      C2209   1.372       .  A
N2205      C2206   1.359       .  A
C2206      C2207   1.370       .  A
C2206      C2217   1.461       .  S
C2207      C2208   1.359       .  A
C2207      H2210   1.082       .  S
C2208      C2209   1.393       .  A
C2208      H2211   1.081       .  S
O2212     Mg2214   2.133       .  S
O2212     Mg2220   2.115       .  S
O2212      C2247   1.242       .  S
C2213      H2252   1.081       .  S
C2213      O2226   1.240       .  S
C2213      O2250   1.275       .  A
Mg2214     O4126   2.266   1_455  S
Mg2214     O4721   2.340   1_455  S
O2215     Mg2257   2.117   1_655  S
O2215     Mg2240   2.133   1_655  S
O2215      C4732   1.241       .  S
O2216      C2247   1.279       .  A
O2216     Mg2240   2.340       .  S
C2217      O2219   1.270       .  A
O2218     Mg2220   2.316       .  S
O2219     Mg2251   2.253       .  S
Mg2220     O2226   2.128       .  S
Mg2220     O2234   2.219       .  S
Mg2220     O2222   2.323       .  S
C2221      O2259   1.260       .  A
C2221      O2227   1.272       .  A
C2221      N2260   1.441       .  S
O2222      C2229   1.269       .  A
H2223      C2236   1.082       .  S
C2224      H2249   1.081   1_655  S
C2224      O4734   1.240       .  S
O2225      C2248   1.279       .  A
O2225     Mg4710   2.340       .  S
O2226     Mg2240   2.085       .  S
O2227     Mg4753   2.346       .  S
C2228      O2241   1.265       .  A
C2228      O2233   1.270       .  A
C2229      O2256   1.261       .  A
C2229      N2267   1.440       .  S
Mg2230     O2237   2.134       .  S
Mg2230     O2238   2.084       .  S
Mg2230     O2231   2.279       .  S
Mg2230     O2232   2.338       .  S
Mg2230     O2259   2.261       .  S
O2232      C2236   1.278       .  A
O2233     Mg2240   2.297       .  S
O2235      C2255   1.274       .  A
O2235     Mg2251   2.350       .  S
C2236      O4711   1.241       .  S
O2237      C2248   1.242       .  S
O2238     Mg4753   2.124       .  S
O2238      C4720   1.240       .  S
O2239     Mg4747   2.316   1_554  S
Mg2240     O2256   2.264       .  S
O2241     Mg2257   2.219       .  S
H2242      C2247   1.081       .  S
O2243     Mg4747   2.135   1_454  S
O2243      C2246   1.240   1_554  S
H2244      C2246   1.081       .  S
H2245      C2248   1.082       .  S
O2250     Mg2257   2.320       .  S
Mg2251     O4739   2.135   1_556  S
Mg2251     O4735   2.316   1_556  S
C2253      O2258   1.273       .  A
O2254      C2255   1.262       .  A
O2254     Mg4086   2.266   1_556  S
C2255      N2274   1.445       .  S
Mg2257     O4734   2.124   1_455  S
Mg2257     O4723   2.346   1_455  S
N2260      C2264   1.372       .  A
N2260      C2261   1.360       .  A
C2261      C2262   1.375       .  A
C2262      C2263   1.369       .  A
C2262      H2265   1.082       .  S
C2263      C2264   1.391       .  A
C2263      H2266   1.082       .  S
N2267      C2271   1.373       .  A
N2267      C2268   1.360       .  A
C2268      C2269   1.376       .  A
C2269      C2270   1.369       .  A
C2269      H2272   1.083       .  S
C2270      C2271   1.392       .  A
C2270      H2273   1.080       .  S
N2274      C2278   1.376       .  A
N2274      C2275   1.363   1_556  A
C2275      C2276   1.375       .  A
C2276      C2277   1.369   1_554  A
C2276      H2279   1.082       .  S
C2277      C2278   1.390       .  A
C2277      H2280   1.082       .  S
O2281     Mg2289   2.134       .  S
O2281      C2316   1.241       .  S
C2282      H2321   1.081       .  S
C2282      O2295   1.242       .  S
C2282      O2319   1.275       .  A
Mg2283     O2312   2.136       .  S
Mg2283     O2327   2.309       .  S
O2284     Mg2326   2.135       .  S
O2284     Mg2309   2.100       .  S
O2284      C2305   1.241       .  S
O2285      C2316   1.274       .  A
O2285     Mg2309   2.309       .  S
C2286      O2288   1.271       .  A
C2286      N2343   1.444       .  S
O2287      C2315   1.274       .  A
Mg2289     O2295   2.122       .  S
Mg2289     O2291   2.302       .  S
C2290      O2296   1.274       .  A
O2291      C2298   1.274       .  A
H2292      C2305   1.081       .  S
C2293      H2318   1.081       .  S
C2293      O2308   1.274       .  A
O2294      C2317   1.273       .  A
O2295     Mg2309   2.129       .  S
O2296     Mg2326   2.303       .  S
C2297      O2310   1.272       .  A
C2297      O2302   1.274       .  A
C2297      N2336   1.444       .  S
C2298      O2325   1.271       .  A
Mg2299     O2306   2.106   1_565  S
Mg2299     O2300   2.292       .  S
Mg2299     O2301   2.305   1_565  S
Mg2299     O2328   2.267       .  S
O2302     Mg2309   2.290       .  S
O2303      C2322   1.271       .  A
O2304      C2324   1.274       .  A
O2306      C2317   1.240   1_545  S
O2307     Mg2326   2.118       .  S
O2308     Mg2320   2.304       .  S
Mg2309     O2325   2.264       .  S
O2310     Mg2326   2.281       .  S
H2311      C2316   1.081       .  S
O2312     Mg2320   2.116       .  S
O2312      C2315   1.242       .  S
H2313      C2315   1.081       .  S
H2314      C2317   1.081       .  S
O2319     Mg2326   2.308       .  S
C2322      O2327   1.277       .  A
C2322      N2329   1.445       .  S
O2323      C2324   1.275   1_545  A
C2324      C2482   1.479       .  S
N2329      C2333   1.377       .  A
N2329      C2330   1.366       .  A
C2330      C2331   1.370       .  A
C2330      C2428   1.480       .  S
C2331      C2332   1.363       .  A
C2331      H2334   1.083       .  S
C2332      C2333   1.395       .  A
C2332      H2335   1.080       .  S
N2336      C2340   1.372       .  A
N2336      C2337   1.364       .  A
C2337      C2338   1.371       .  A
C2338      C2339   1.363       .  A
C2338      H2341   1.083       .  S
C2339      C2340   1.394       .  A
C2339      H2342   1.081       .  S
N2343      C2347   1.371       .  A
N2343      C2344   1.361       .  A
C2344      C2345   1.373       .  A
C2345      C2346   1.365       .  A
C2345      H2348   1.083   1_565  S
C2346      C2347   1.393       .  A
C2346      H2349   1.081       .  S
O2350     Mg2352   2.106       .  S
O2350     Mg2358   2.135       .  S
O2350      C2385   1.240       .  S
C2351      H2390   1.081       .  S
C2351      O2364   1.242       .  S
C2351      O2388   1.274       .  A
Mg2352     O2381   2.130       .  S
Mg2352     O2396   2.292       .  S
Mg2352     O2392   2.267       .  S
Mg2352     O2363   2.305       .  S
O2353     Mg2395   2.134       .  S
O2353     Mg2378   2.114       .  S
O2353      C2374   1.241       .  S
O2354      C2385   1.273       .  A
O2354     Mg2378   2.301       .  S
C2355      O2357   1.272       .  A
C2355      O2369   1.274       .  A
C2355      N2398   1.444       .  S
O2356      C2384   1.274       .  A
O2356     Mg2358   2.304       .  S
O2357     Mg2389   2.281       .  S
Mg2358     O2364   2.116       .  S
Mg2358     O2372   2.276       .  S
Mg2358     O2360   2.297       .  S
C2359      C2468   1.474       .  S
C2359      O2397   1.271       .  A
C2359      O2365   1.274       .  A
O2360      C2367   1.274       .  A
H2361      C2374   1.081       .  S
C2362      H2387   1.081       .  S
C2362      O2376   1.242       .  S
C2362      O2377   1.275       .  A
O2363      C2386   1.274       .  A
O2364     Mg2378   2.136       .  S
O2365     Mg2395   2.302       .  S
C2366      O2379   1.271       .  A
C2366      O2371   1.277       .  A
C2366      N2405   1.445       .  S
C2367      O2394   1.275       .  A
Mg2368     O2375   2.100       .  S
Mg2368     O2376   2.129       .  S
Mg2368     O2369   2.290       .  S
Mg2368     O2370   2.309       .  S
Mg2368     O2397   2.264       .  S
O2370      C2374   1.274       .  A
O2371     Mg2378   2.308       .  S
O2372      C2391   1.271       .  A
O2373      C2393   1.274       .  A
O2373     Mg2389   2.303       .  S
O2375     Mg2389   2.135       .  S
O2375      C2386   1.241       .  S
O2376     Mg2395   2.122       .  S
O2377     Mg2389   2.308       .  S
Mg2378     O2394   2.280       .  S
O2379     Mg2395   2.265       .  S
H2380      C2385   1.081       .  S
O2381     Mg2389   2.118       .  S
O2381      C2384   1.242       .  S
H2382      C2384   1.081       .  S
H2383      C2386   1.081       .  S
O2388     Mg2395   2.301       .  S
C2391      O2396   1.275       .  A
C2391      N2412   1.444       .  S
O2392      C2393   1.272       .  A
N2398      C2402   1.372       .  A
N2398      C2399   1.364       .  A
C2399      C2400   1.371       .  A
C2399      C2462   1.473       .  S
C2400      C2401   1.363       .  A
C2400      H2403   1.083       .  S
C2401      C2402   1.394       .  A
C2401      H2404   1.081       .  S
N2405      C2409   1.377       .  A
N2405      C2406   1.366       .  A
C2406      C2407   1.370       .  A
C2407      C2408   1.363       .  A
C2407      H2410   1.083       .  S
C2408      C2409   1.395       .  A
C2408      H2411   1.080       .  S
N2412      C2416   1.371       .  A
N2412      C2413   1.361       .  A
C2413      C2414   1.373       .  A
C2414      C2415   1.365       .  A
C2414      H2417   1.083       .  S
C2415      C2416   1.393       .  A
C2415      H2418   1.081       .  S
O2419     Mg2427   2.141       .  S
O2419      C2454   1.240       .  S
C2420      H2459   1.081       .  S
C2420      O2433   1.242       .  S
C2420      O2457   1.275       .  A
Mg2421     O2450   2.122       .  S
Mg2421     O2465   2.273       .  S
Mg2421     O2461   2.256       .  S
O2422     Mg2464   2.139       .  S
O2422     Mg2447   2.117       .  S
O2422      C2443   1.241       .  S
O2423      C2454   1.273       .  A
O2423     Mg2447   2.297       .  S
C2424      O2426   1.267       .  A
C2424      N2481   1.448       .  S
O2425      C2453   1.272       .  A
O2426     Mg2458   2.234       .  S
Mg2427     O2433   2.122       .  S
Mg2427     O2429   2.294       .  S
C2428      O2466   1.272       .  A
C2428      O2434   1.280       .  A
O2429      C2436   1.273       .  A
H2430      C2443   1.081       .  S
C2431      H2456   1.081       .  S
C2431      O2446   1.276       .  A
O2432      C2455   1.275       .  A
O2433     Mg2447   2.132       .  S
O2434     Mg2464   2.339       .  S
C2435      O2448   1.276       .  A
C2435      O2440   1.279       .  A
C2435      N2474   1.448       .  S
C2436      O2463   1.276       .  A
Mg2437     O2444   2.122       .  S
Mg2437     O2445   2.131       .  S
Mg2437     O2438   2.311       .  S
Mg2437     O2439   2.309       .  S
Mg2437     O2466   2.264       .  S
O2439      C2443   1.275       .  A
O2440     Mg2447   2.305       .  S
O2441      C2460   1.272       .  A
O2442      C2462   1.276       .  A
O2442     Mg2458   2.324       .  S
O2444      C2455   1.241       .  S
O2445     Mg2464   2.133       .  S
O2446     Mg2458   2.313       .  S
Mg2447     O2463   2.286       .  S
O2448     Mg2464   2.311       .  S
H2449      C2454   1.081       .  S
O2450     Mg2458   2.099       .  S
O2450      C2453   1.240       .  S
H2451      C2453   1.081       .  S
H2452      C2455   1.081       .  S
O2457     Mg2464   2.306       .  S
C2460      O2465   1.271       .  A
C2460      N2467   1.441       .  S
O2461      C2462   1.268       .  A
N2467      C2471   1.371       .  A
N2467      C2468   1.361       .  A
C2468      C2469   1.371       .  A
C2469      C2470   1.363       .  A
C2469      H2472   1.083       .  S
C2470      C2471   1.394       .  A
C2470      H2473   1.080       .  S
N2474      C2478   1.371       .  A
N2474      C2475   1.359       .  A
C2475      C2476   1.370       .  A
C2476      C2477   1.359       .  A
C2476      H2479   1.082       .  S
C2477      C2478   1.393       .  A
C2477      H2480   1.081       .  S
C2478      C2492   1.493       .  S
N2481      C2485   1.377       .  A
N2481      C2482   1.362       .  A
C2482      C2483   1.374       .  A
C2483      C2484   1.365       .  A
C2483      H2486   1.082       .  S
C2484      C2485   1.389       .  A
C2484      H2487   1.082       .  S
C2488      C2489   1.407       .  A
C2488      C2493   1.390       .  A
C2489      C2490   1.401       .  A
C2489      H2494   1.062       .  S
C2490      C2491   1.418       .  A
C2491      C2492   1.404       .  A
C2491      H2495   1.079       .  S
C2492      C2493   1.414       .  A
C2493      H2496   1.075       .  S
C2497      C2498   1.404       .  A
C2497      C2502   1.414       .  A
C2497      C2833   1.493       .  S
C2498      C2499   1.418       .  A
C2498      H2503   1.079       .  S
C2499      C2500   1.401       .  A
C2499      C3109   1.507       .  S
C2500      C2501   1.407       .  A
C2500      H2504   1.061       .  S
C2501      C2502   1.390       .  A
C2501      C2695   1.497       .  S
C2502      H2505   1.075       .  S
C2506      C2507   1.407       .  A
C2506      C2511   1.409       .  A
C2506      C3095   1.508       .  S
C2507      C2508   1.417       .  A
C2507      H2512   1.064       .  S
C2508      C2509   1.401       .  A
C2508      C2626   1.515       .  S
C2509      C2510   1.412       .  A
C2509      H2513   1.067       .  S
C2510      C2511   1.393       .  A
C2510      C2688   1.494       .  S
C2511      H2514   1.072       .  S
C2515      C2516   1.406       .  A
C2515      C2520   1.417       .  A
C2515      C2888   1.508       .  S
C2516      C2517   1.414       .  A
C2516      H2521   1.065       .  S
C2517      C2518   1.399       .  A
C2517      C2764   1.512       .  S
C2518      C2519   1.410       .  A
C2518      H2522   1.066       .  S
C2519      C2520   1.403       .  A
C2519      C3026   1.505       .  S
C2520      H2523   1.078       .  S
C2524      C2525   1.414       .  A
C2524      C2529   1.399       .  A
C2524      C2895   1.512       .  S
C2525      C2526   1.406       .  A
C2525      H2530   1.065       .  S
C2526      C2527   1.417       .  A
C2526      C2757   1.508       .  S
C2527      C2528   1.403       .  A
C2527      H2531   1.078       .  S
C2528      C2529   1.410       .  A
C2528      C2964   1.505       .  S
C2529      H2532   1.065       .  S
C2533      C2534   1.412       .  A
C2533      C2538   1.393       .  A
C2533      C2619   1.494       .  S
C2534      C2535   1.401       .  A
C2534      H2539   1.067       .  S
C2535      C2536   1.417       .  A
C2535      C2681   1.516       .  S
C2536      C2537   1.407       .  A
C2536      H2540   1.063       .  S
C2537      C2538   1.409       .  A
C2537      C2826   1.508       .  S
C2538      H2541   1.072       .  S
C2542      C2543   1.407       .  A
C2542      C2547   1.400       .  A
C2542      C3040   1.502       .  S
C2543      C2544   1.399       .  A
C2543      H2548   1.066       .  S
C2544      C2545   1.421       .  A
C2544      C2902   1.510       .  S
C2545      C2546   1.410       .  A
C2545      H2549   1.072       .  S
C2546      C2547   1.417       .  A
C2546      C2957   1.518       .  S
C2547      H2550   1.074       .  S
C2551      C2552   1.421       .  A
C2551      C2556   1.399       .  A
C2551      C2750   1.510       .  S
C2552      C2553   1.410       .  A
C2552      H2557   1.072       .  S
C2553      C2554   1.417       .  A
C2553      C3033   1.518       .  S
C2554      C2555   1.400       .  A
C2554      H2558   1.074       .  S
C2555      C2556   1.407       .  A
C2555      C2971   1.502       .  S
C2556      H2559   1.066       .  S
O2560     Mg2562   2.118       .  S
O2560     Mg2568   2.144   1_655  S
O2560      C2595   1.241       .  S
C2561      H2600   1.081       .  S
C2561      O2574   1.242       .  S
C2561      O2598   1.276       .  A
Mg2562     O2606   2.317       .  S
Mg2562     O3850   2.303   1_545  S
Mg2562     O3821   2.299   1_645  S
O2563     Mg2605   2.135       .  S
O2563     Mg2588   2.118       .  S
O2563      C2584   1.242       .  S
O2564      C3219   1.274       .  A
C2565      O2567   1.269       .  A
C2565      O2579   1.276       .  A
C2565      N2622   1.444       .  S
O2566      C2594   1.273       .  A
O2567     Mg2599   2.255       .  S
Mg2568     O2582   2.287   1_455  S
Mg2568     O2570   2.306   1_455  S
C2569      C2968   1.473       .  S
C2569      O2607   1.271       .  A
C2569      O3823   1.275       .  A
O2570      C3201   1.275       .  A
H2571      C2584   1.081       .  S
C2572      H2597   1.081       .  S
C2572      O2586   1.241       .  S
C2572      O2587   1.274       .  A
O2573     Mg3810   2.299   1_455  S
O2574     Mg3212   2.135       .  S
O2575      C3817   1.275       .  A
O2575     Mg2605   2.310       .  S
C2576      O2589   1.272       .  A
C2576      O2581   1.281       .  A
C2576      N2608   1.449       .  S
C2577      C2899   1.488       .  S
C2577      O3194   1.275       .  A
C2577      O2604   1.277   1_655  A
Mg2578     O2585   2.105       .  S
Mg2578     O3834   2.130       .  S
Mg2578     O2579   2.299       .  S
Mg2578     O3204   2.312       .  S
Mg2578     O3231   2.262       .  S
O2580      C3832   1.276       .  A
O2580     Mg3202   2.312       .  S
O2581     Mg2588   2.326       .  S
O2582      C2601   1.273       .  A
O2583     Mg2599   2.287       .  S
C2584      O3828   1.276       .  A
O2585     Mg2599   2.138       .  S
O2585      C2596   1.241       .  S
O2586     Mg3826   2.130   1_545  S
O2586     Mg3229   2.124       .  S
O2587     Mg3847   2.302       .  S
Mg2588     O3198   2.135       .  S
O2589     Mg2605   2.288       .  S
H2590      C2595   1.081       .  S
O2591     Mg3847   2.107       .  S
O2591      C2594   1.241       .  S
H2592      C2594   1.081       .  S
H2593      C2596   1.081       .  S
C2595      O3188   1.274       .  A
O2598     Mg3229   2.309       .  S
Mg2599     O3839   2.107       .  S
Mg2599     O3835   2.302       .  S
C2601      O2606   1.281       .  A
C2601      N2615   1.447       .  S
O2602      C2603   1.278   1_655  A
O2602     Mg3810   2.303       .  S
C2603      C2761   1.487       .  S
Mg2605     O3210   2.124       .  S
Mg2605     O3222   2.309       .  S
O2607     Mg3202   2.262       .  S
N2608      C2612   1.375       .  A
N2608      C2609   1.359       .  A
C2609      C2610   1.371       .  A
C2609      C2877   1.461       .  S
C2610      C2611   1.358       .  A
C2610      H2613   1.083       .  S
C2611      C2612   1.393       .  A
C2611      H2614   1.081       .  S
C2612      C3112   1.497       .  S
N2615      C2619   1.373       .  A
N2615      C2616   1.354       .  A
C2616      C2617   1.370       .  A
C2616      C2703   1.458   1_655  S
C2617      C2618   1.361       .  A
C2617      H2620   1.082       .  S
C2618      C2619   1.393       .  A
C2618      H2621   1.080       .  S
N2622      C2626   1.377       .  A
N2622      C2623   1.361       .  A
C2623      C2624   1.371       .  A
C2623      C4162   1.477       .  S
C2624      C2625   1.364       .  A
C2624      H2627   1.083       .  S
C2625      C2626   1.395       .  A
C2625      H2628   1.079       .  S
O2629     Mg2631   2.118       .  S
O2629      C2664   1.242       .  S
C2630      H2669   1.081       .  S
C2630      O2643   1.241       .  S
C2630      O2667   1.274       .  A
Mg2631     O2660   2.135       .  S
Mg2631     O2675   2.326       .  S
Mg2631     O2671   2.293       .  S
Mg2631     O2642   2.304       .  S
O2632     Mg2674   2.138       .  S
O2632      C2653   1.241       .  S
O2633      C2664   1.276       .  A
C2634      O2636   1.273       .  A
C2634      O2648   1.281       .  A
C2634      N2684   1.447       .  S
O2635      C2663   1.276       .  A
O2635     Mg2637   2.309       .  S
O2636     Mg2668   2.287       .  S
Mg2637     O2643   2.124       .  S
Mg2637     O2651   2.288       .  S
Mg2637     O2639   2.310       .  S
C2638      C2892   1.487       .  S
C2638      O2676   1.278       .  A
C2638      O2644   1.272       .  A
O2639      C2646   1.275       .  A
H2640      C2653   1.081       .  S
C2641      H2666   1.081       .  S
C2641      O2655   1.241       .  S
C2641      O2656   1.273       .  A
O2642      C2665   1.274       .  A
O2643     Mg2657   2.130       .  S
O2644     Mg2674   2.287       .  S
C2645      O2658   1.269       .  A
C2645      O2650   1.276       .  A
C2645      N2677   1.444       .  S
C2646      C3037   1.473       .  S
C2646      O2673   1.271       .  A
Mg2647     O2654   2.118       .  S
Mg2647     O2655   2.135       .  S
Mg2647     O2648   2.317       .  S
Mg2647     O2649   2.299       .  S
Mg2647     O2676   2.303       .  S
O2649      C2653   1.274       .  A
O2650     Mg2657   2.299       .  S
O2651      C2670   1.272       .  A
O2652      C2672   1.275       .  A
O2652     Mg2668   2.306       .  S
O2654     Mg2668   2.143       .  S
O2654      C2665   1.241       .  S
O2655     Mg2674   2.107       .  S
O2656     Mg2668   2.295       .  S
Mg2657     O2673   2.262       .  S
H2659      C2664   1.081       .  S
O2660     Mg2668   2.131       .  S
H2661      C2663   1.081       .  S
H2662      C2665   1.081       .  S
C2670      N2691   1.449       .  S
O2671      C2672   1.277       .  A
C2672      C2747   1.488       .  S
N2677      C2681   1.377       .  A
N2677      C2678   1.361       .  A
C2678      C2679   1.371       .  A
C2678      C3017   1.477       .  S
C2679      C2680   1.364       .  A
C2679      H2682   1.083       .  S
C2680      C2681   1.395       .  A
C2680      H2683   1.079       .  S
N2684      C2688   1.373       .  A
N2684      C2685   1.354       .  A
C2685      C2686   1.370       .  A
C2685      C2852   1.458       .  S
C2686      C2687   1.361       .  A
C2686      H2689   1.082       .  S
C2687      C2688   1.393       .  A
C2687      H2690   1.080       .  S
N2691      C2695   1.375       .  A
N2691      C2692   1.359       .  A
C2692      C2693   1.371       .  A
C2692      C2714   1.461       .  S
C2693      C2694   1.358       .  A
C2693      H2696   1.083       .  S
C2694      C2695   1.393       .  A
C2694      H2697   1.081       .  S
O2698     Mg2700   2.134   1_565  S
O2698     Mg2706   2.126   1_565  S
O2698      C3981   1.242       .  S
C2699      H2738   1.081   1_565  S
C2699      O3960   1.240       .  S
Mg2700     O2729   2.084       .  S
Mg2700     O2744   2.279       .  S
Mg2700     O2740   2.261       .  S
Mg2700     O2711   2.338       .  S
O2701     Mg2726   2.133       .  S
O2701      C2722   1.242       .  S
O2702      C2733   1.279       .  A
O2702     Mg2726   2.340       .  S
C2703      O2717   1.270       .  A
O2704      C2732   1.275       .  A
O2704     Mg2706   2.316       .  S
O2705     Mg2737   2.219       .  S
Mg2706     O3960   2.135   1_545  S
Mg2706     O2720   2.253       .  S
Mg2706     O3956   2.350   1_545  S
C2707      O2745   1.261       .  A
C2707      O2713   1.269       .  A
C2707      N2760   1.440       .  S
O2708      C2715   1.274       .  A
O2708     Mg3954   2.350       .  S
H2709      C2722   1.082       .  S
C2710      H2735   1.081       .  S
C2710      O2724   1.240   1_655  S
O2711      C2734   1.278       .  A
O2712     Mg3954   2.135       .  S
O2712     Mg2726   2.089       .  S
O2712      C3947   1.240       .  S
O2713     Mg2743   2.323       .  S
C2714      O2727   1.265       .  A
C2715      O2742   1.262       .  A
C2715      N2746   1.445       .  S
Mg2716     O2723   2.133       .  S
Mg2716     O3966   2.340   1_545  S
O2718      C2722   1.279       .  A
O2718     Mg3964   2.340       .  S
O2719     Mg2726   2.318       .  S
O2720      C2739   1.270       .  A
O2721      C2741   1.272       .  A
O2721     Mg2737   2.346       .  S
O2723     Mg2737   2.117       .  S
O2723      C2734   1.241       .  S
O2724     Mg3991   2.128   1_445  S
O2725     Mg2737   2.320       .  S
Mg2726     O2742   2.266       .  S
O2727     Mg2743   2.219       .  S
H2728      C2733   1.082       .  S
O2729     Mg2737   2.124       .  S
O2729      C2732   1.240       .  S
H2730      C2732   1.081       .  S
H2731      C2734   1.082       .  S
C2733      O3946   1.242       .  S
O2736     Mg3991   2.316       .  S
C2739      C3099   1.461       .  S
C2739      O2744   1.268       .  A
O2740      C2741   1.260       .  A
C2741      N2753   1.441       .  S
Mg2743     O3972   2.128   1_655  S
Mg2743     O3984   2.316       .  S
N2746      C2750   1.376       .  A
N2746      C2747   1.363       .  A
C2747      C2748   1.375       .  A
C2748      C2749   1.369       .  A
C2748      H2751   1.082       .  S
C2749      C2750   1.390       .  A
C2749      H2752   1.082       .  S
N2753      C2757   1.372       .  A
N2753      C2754   1.360       .  A
C2754      C2755   1.375       .  A
C2754      C3060   1.482       .  S
C2755      C2756   1.369       .  A
C2755      H2758   1.082       .  S
C2756      C2757   1.391       .  A
C2756      H2759   1.082       .  S
N2760      C2764   1.373       .  A
N2760      C2761   1.360   1_655  A
C2761      C2762   1.376       .  A
C2762      C2763   1.369   1_455  A
C2762      H2765   1.083       .  S
C2763      C2764   1.392       .  A
C2763      H2766   1.080       .  S
O2767     Mg2769   2.117   1_556  S
O2767     Mg3399   2.139       .  S
O2767      C2802   1.241   1_556  S
C2768      H2807   1.081       .  S
C2768      O2781   1.242       .  S
C2768      O2805   1.276       .  A
Mg2769     O2798   2.132       .  S
Mg2769     O2813   2.305   1_554  S
Mg2769     O2809   2.286       .  S
Mg2769     O2780   2.297       .  S
O2770     Mg2812   2.128       .  S
O2770     Mg3419   2.122       .  S
O2770      C2791   1.241   1_556  S
O2771      C2802   1.275   1_556  A
O2771     Mg3419   2.309       .  S
C2772      O2774   1.272       .  A
C2772      O2786   1.271       .  A
C2772      N2822   1.441       .  S
O2773      C2801   1.275       .  A
O2773     Mg2775   2.306       .  S
O2774     Mg2806   2.264       .  S
Mg2775     O3391   2.139       .  S
Mg2775     O2781   2.133       .  S
Mg2775     O2789   2.311       .  S
Mg2775     O2777   2.339       .  S
C2776      C2961   1.474       .  S
C2776      O2814   1.268       .  A
C2776      O2782   1.276       .  A
O2777      C2784   1.280       .  A
H2778      C2791   1.081       .  S
C2779      H2804   1.081   1_554  S
C2779      O2793   1.240       .  S
C2779      O2794   1.272       .  A
O2780      C2803   1.273       .  A
O2781     Mg2795   2.131       .  S
O2782     Mg2812   2.325   1_554  S
C2783      O2796   1.267       .  A
C2783      O2788   1.276       .  A
C2783      N2815   1.448       .  S
C2784      C3030   1.480       .  S
C2784      O2811   1.272       .  A
Mg2785     O2792   2.099       .  S
Mg2785     O2793   2.122       .  S
Mg2785     O2786   2.273       .  S
Mg2785     O2787   2.313       .  S
Mg2785     O2814   2.256       .  S
O2787      C2791   1.275       .  A
O2788     Mg2795   2.310       .  S
O2789      C2808   1.276       .  A
O2790      C2810   1.273       .  A
O2790     Mg2806   2.294       .  S
O2792     Mg2806   2.141       .  S
O2792      C2803   1.240       .  S
O2793     Mg2812   2.099   1_554  S
O2794     Mg2806   2.293       .  S
Mg2795     O3394   2.122       .  S
Mg2795     O3395   2.309       .  S
Mg2795     O2811   2.264       .  S
O2796     Mg3436   2.234       .  S
H2797      C2802   1.081       .  S
O2798     Mg2806   2.122       .  S
O2798      C3425   1.242   1_554  S
H2799      C2801   1.081       .  S
H2800      C2803   1.081       .  S
C2801      O3422   1.242       .  S
O2805     Mg3436   2.313       .  S
C2808      O3437   1.279       .  A
C2808      N2829   1.448       .  S
O2809      C2810   1.276       .  A
C2810      C2885   1.482       .  S
Mg2812     O3420   2.234       .  S
Mg2812     O3429   2.313       .  S
O2813      C3432   1.279       .  A
N2815      C2819   1.377       .  A
N2815      C2816   1.362       .  A
C2816      C2817   1.374       .  A
C2816      C2991   1.479       .  S
C2817      C2818   1.365       .  A
C2817      H2820   1.082       .  S
C2818      C2819   1.389       .  A
C2818      H2821   1.082       .  S
C2819      C3114   1.507       .  S
N2822      C2826   1.371       .  A
N2822      C2823   1.361       .  A
C2823      C2824   1.371       .  A
C2823      C2922   1.474       .  S
C2824      C2825   1.363       .  A
C2824      H2827   1.083       .  S
C2825      C2826   1.394       .  A
C2825      H2828   1.080       .  S
N2829      C2833   1.372       .  A
N2829      C2830   1.359       .  A
C2830      C2831   1.370       .  A
C2830      C2841   1.461       .  S
C2831      C2832   1.359       .  A
C2831      H2834   1.082       .  S
C2832      C2833   1.393       .  A
C2832      H2835   1.081       .  S
O2836     Mg2838   2.133       .  S
O2836     Mg2844   2.115       .  S
O2836      C2871   1.242       .  S
C2837      H2876   1.081       .  S
C2837      O2850   1.240       .  S
C2837      O2874   1.275       .  A
Mg2838     O3491   2.089       .  S
Mg2838     O3506   2.318       .  S
O2839     Mg2881   2.117       .  S
O2839     Mg2864   2.133       .  S
O2840      C2871   1.279       .  A
O2840     Mg2864   2.340       .  S
C2841      O2843   1.270       .  A
C2841      O3479   1.268       .  A
O2842      C3494   1.275   1_554  A
O2842     Mg2844   2.316       .  S
O2843     Mg2875   2.253       .  S
Mg2844     O2850   2.128       .  S
Mg2844     O2858   2.219       .  S
Mg2844     O2846   2.323       .  S
C2845      O2883   1.260       .  A
C2845      O2851   1.272       .  A
C2845      N2884   1.441       .  S
O2846      C2853   1.269       .  A
H2847      C2860   1.082       .  S
C2848      H2873   1.081       .  S
C2848      O3487   1.275       .  A
O2849      C2872   1.279       .  A
O2850     Mg2864   2.085       .  S
C2852      O2865   1.265       .  A
C2852      O2857   1.270       .  A
C2853      O2880   1.261       .  A
C2853      N2891   1.440       .  S
Mg2854     O2861   2.134       .  S
Mg2854     O2862   2.084       .  S
Mg2854     O2855   2.279       .  S
Mg2854     O2856   2.338       .  S
Mg2854     O2883   2.261       .  S
O2855      C3465   1.268   1_554  A
O2856      C2860   1.278       .  A
O2857     Mg2864   2.297       .  S
O2858      C3501   1.265       .  A
O2859      C2879   1.274       .  A
O2859     Mg2875   2.350       .  S
O2861     Mg3499   2.126   1_554  S
O2861      C2872   1.242       .  S
O2863      C3472   1.275       .  A
Mg2864     O2880   2.264       .  S
O2865     Mg2881   2.219       .  S
H2866      C2871   1.081       .  S
O2867     Mg3462   2.089       .  S
O2867      C2870   1.240       .  S
H2868      C2870   1.081       .  S
H2869      C2872   1.082       .  S
C2870      O3466   1.275       .  A
O2874     Mg2881   2.320       .  S
Mg2875     O3485   2.126       .  S
C2877      O3482   1.265       .  A
C2877      O2882   1.273       .  A
O2878      C2879   1.262       .  A
C2879      N2898   1.445       .  S
O2882     Mg3462   2.318       .  S
N2884      C2888   1.372       .  A
N2884      C2885   1.360       .  A
C2885      C2886   1.375       .  A
C2886      C2887   1.369       .  A
C2886      H2889   1.082       .  S
C2887      C2888   1.391       .  A
C2887      H2890   1.082       .  S
N2891      C2895   1.373       .  A
N2891      C2892   1.360       .  A
C2892      C2893   1.376       .  A
C2893      C2894   1.369       .  A
C2893      H2896   1.083       .  S
C2894      C2895   1.392       .  A
C2894      H2897   1.080       .  S
N2898      C2902   1.376       .  A
N2898      C2899   1.363       .  A
C2899      C2900   1.375       .  A
C2900      C2901   1.369       .  A
C2900      H2903   1.082       .  S
C2901      C2902   1.390       .  A
C2901      H2904   1.082       .  S
O2905     Mg3531   2.114       .  S
O2905     Mg2913   2.134       .  S
O2905      C2940   1.241   1_556  S
C2906      H2945   1.081   1_554  S
C2906      O2919   1.242       .  S
C2906      O2943   1.275       .  A
Mg2907     O3529   2.114       .  S
Mg2907     O2936   2.136       .  S
Mg2907     O2951   2.309       .  S
Mg2907     O4195   2.280       .  S
Mg2907     O4790   2.301   1_545  S
O2908     Mg2950   2.135       .  S
O2908     Mg2933   2.100       .  S
O2908      C2929   1.241       .  S
O2909      C2940   1.274       .  A
O2909     Mg2933   2.309       .  S
C2910      O2912   1.271       .  A
C2910      O3548   1.275       .  A
C2910      N2967   1.444       .  S
O2911      C2939   1.274       .  A
O2911     Mg3537   2.301       .  S
O2912     Mg4192   2.276       .  S
Mg2913     O2919   2.122   1_556  S
Mg2913     O3535   2.301       .  S
Mg2913     O3551   2.265       .  S
Mg2913     O2915   2.302   1_556  S
C2914      C3871   1.477   1_545  S
C2914      O4200   1.272   1_545  A
C2914      O2920   1.274       .  A
O2915      C2922   1.274       .  A
H2916      C2929   1.081       .  S
C2917      H2942   1.081       .  S
C2917      O3555   1.242       .  S
C2917      O2932   1.274       .  A
O2918      C2941   1.273       .  A
O2918     Mg4779   2.301       .  S
O2919     Mg2933   2.129       .  S
O2920     Mg2950   2.303       .  S
C2921      O2934   1.272       .  A
C2921      O2926   1.274       .  A
C2921      N2960   1.444       .  S
C2922      O2949   1.271       .  A
Mg2923     O2930   2.106   1_554  S
Mg2923     O4179   2.130       .  S
Mg2923     O2924   2.292   1_554  S
Mg2923     O2925   2.305       .  S
Mg2923     O2952   2.267       .  S
O2924      C3534   1.275       .  A
O2925      C4177   1.274       .  A
O2926     Mg2933   2.290       .  S
O2927      C2946   1.271       .  A
O2927     Mg3537   2.265       .  S
O2928      C2948   1.274       .  A
O2928     Mg4192   2.297       .  S
C2929      O4173   1.274       .  A
O2930     Mg4816   2.135       .  S
O2930      C2941   1.240       .  S
O2931     Mg4171   2.130   1_545  S
O2931     Mg2950   2.118       .  S
O2931      C3541   1.242   1_554  S
O2932     Mg2944   2.304       .  S
Mg2933     O2949   2.264       .  S
O2934     Mg2950   2.281       .  S
H2935      C2940   1.081       .  S
O2936     Mg2944   2.116       .  S
O2936      C2939   1.242       .  S
H2937      C2939   1.081       .  S
H2938      C2941   1.081   1_554  S
O2943     Mg2950   2.308       .  S
Mg2944     O4802   2.135       .  S
Mg2944     O4160   2.276   1_545  S
Mg2944     O4176   2.297   1_545  S
C2946      O2951   1.277       .  A
C2946      N2953   1.445       .  S
O2947      C2948   1.275       .  A
O2947     Mg4155   2.280       .  S
C2948      C3106   1.479       .  S
O2952      C4162   1.272       .  A
N2953      C2957   1.377       .  A
N2953      C2954   1.366       .  A
C2954      C2955   1.370       .  A
C2954      C3052   1.480       .  S
C2955      C2956   1.363       .  A
C2955      H2958   1.083       .  S
C2956      C2957   1.395       .  A
C2956      H2959   1.080       .  S
N2960      C2964   1.372       .  A
N2960      C2961   1.364       .  A
C2961      C2962   1.371       .  A
C2962      C2963   1.363       .  A
C2962      H2965   1.083       .  S
C2963      C2964   1.394       .  A
C2963      H2966   1.081       .  S
N2967      C2971   1.371       .  A
N2967      C2968   1.361       .  A
C2968      C2969   1.373       .  A
C2969      C2970   1.365       .  A
C2969      H2972   1.083       .  S
C2970      C2971   1.393       .  A
C2970      H2973   1.081       .  S
O2974     Mg2976   2.106       .  S
O2974     Mg2982   2.135       .  S
O2974      C3009   1.240       .  S
C2975      H3014   1.081       .  S
C2975      O2988   1.242       .  S
C2975      O3012   1.274       .  A
Mg2976     O3005   2.130       .  S
Mg2976     O3020   2.292       .  S
Mg2976     O3016   2.267       .  S
Mg2976     O2987   2.305       .  S
O2977     Mg3019   2.134       .  S
O2977     Mg3002   2.114       .  S
O2977      C2998   1.241       .  S
O2978      C3009   1.273       .  A
O2978     Mg3002   2.301       .  S
C2979      O2981   1.272       .  A
C2979      O2993   1.274       .  A
C2979      N3022   1.444       .  S
O2980      C3008   1.274       .  A
O2980     Mg2982   2.304       .  S
O2981     Mg3013   2.281       .  S
Mg2982     O2988   2.116       .  S
Mg2982     O2996   2.276       .  S
Mg2982     O2984   2.297       .  S
C2983      C3092   1.474       .  S
C2983      O3021   1.271       .  A
C2983      O2989   1.274       .  A
O2984      C2991   1.274       .  A
H2985      C2998   1.081       .  S
C2986      H3011   1.081       .  S
C2986      O3000   1.242       .  S
C2986      O3001   1.275       .  A
O2987      C3010   1.274       .  A
O2988     Mg3002   2.136       .  S
O2989     Mg3019   2.302       .  S
C2990      O3003   1.271       .  A
C2990      O2995   1.277       .  A
C2990      N3029   1.445       .  S
C2991      O3018   1.275       .  A
Mg2992     O2999   2.100       .  S
Mg2992     O3000   2.129       .  S
Mg2992     O2993   2.290       .  S
Mg2992     O2994   2.309       .  S
Mg2992     O3021   2.264       .  S
O2994      C2998   1.274       .  A
O2995     Mg3002   2.308       .  S
O2996      C3015   1.271       .  A
O2997      C3017   1.274       .  A
O2997     Mg3013   2.303       .  S
O2999     Mg3013   2.135       .  S
O2999      C3010   1.241       .  S
O3000     Mg3019   2.122       .  S
O3001     Mg3013   2.308       .  S
Mg3002     O3018   2.280       .  S
O3003     Mg3019   2.265       .  S
H3004      C3009   1.081       .  S
O3005     Mg3013   2.118       .  S
O3005      C3008   1.242       .  S
H3006      C3008   1.081       .  S
H3007      C3010   1.081       .  S
O3012     Mg3019   2.301       .  S
C3015      O3020   1.275       .  A
C3015      N3036   1.444       .  S
O3016      C3017   1.272       .  A
N3022      C3026   1.372       .  A
N3022      C3023   1.364       .  A
C3023      C3024   1.371       .  A
C3023      C3086   1.473       .  S
C3024      C3025   1.363       .  A
C3024      H3027   1.083       .  S
C3025      C3026   1.394       .  A
C3025      H3028   1.081       .  S
N3029      C3033   1.377       .  A
N3029      C3030   1.366       .  A
C3030      C3031   1.370       .  A
C3031      C3032   1.363       .  A
C3031      H3034   1.083       .  S
C3032      C3033   1.395       .  A
C3032      H3035   1.080       .  S
N3036      C3040   1.371       .  A
N3036      C3037   1.361       .  A
C3037      C3038   1.373       .  A
C3038      C3039   1.365       .  A
C3038      H3041   1.083       .  S
C3039      C3040   1.393       .  A
C3039      H3042   1.081       .  S
O3043     Mg4293   2.099       .  S
O3043     Mg3051   2.141       .  S
O3043      C3078   1.240   1_565  S
C3044      H3083   1.081   1_545  S
C3044      O3057   1.242       .  S
C3044      O3081   1.275       .  A
Mg3045     O4291   2.099       .  S
Mg3045     O3074   2.122       .  S
Mg3045     O3089   2.273       .  S
Mg3045     O3085   2.256       .  S
Mg3045     O4304   2.313       .  S
O3046     Mg3088   2.139       .  S
O3046     Mg3071   2.117       .  S
O3046      C3067   1.241       .  S
O3047      C3078   1.273       .  A
O3047     Mg3071   2.297       .  S
C3048      O3050   1.267       .  A
C3048      O4310   1.276       .  A
C3048      N3105   1.448       .  S
O3049      C3077   1.272       .  A
O3049     Mg4299   2.293       .  S
O3050     Mg3082   2.234       .  S
Mg3051     O3057   2.122   1_565  S
Mg3051     O4297   2.293       .  S
Mg3051     O4313   2.264       .  S
Mg3051     O3053   2.294   1_565  S
C3052      O3090   1.272       .  A
C3052      O3058   1.280       .  A
O3053      C3060   1.273       .  A
H3054      C3067   1.081       .  S
C3055      H3080   1.081       .  S
C3055      O4317   1.242       .  S
C3055      O3070   1.276       .  A
O3056      C3079   1.275   1_565  A
O3056     Mg4293   2.313       .  S
O3057     Mg3071   2.132       .  S
O3058     Mg3088   2.339       .  S
C3059      O3072   1.276       .  A
C3059      O3064   1.279       .  A
C3059      N3098   1.448       .  S
C3060      O3087   1.276       .  A
Mg3061     O3068   2.122   1_545  S
Mg3061     O3069   2.131       .  S
Mg3061     O3062   2.311   1_545  S
Mg3061     O3063   2.309       .  S
Mg3061     O3090   2.264       .  S
O3062      C4296   1.276       .  A
O3063      C3067   1.275       .  A
O3064     Mg3071   2.305       .  S
O3065      C3084   1.272       .  A
O3065     Mg4299   2.264       .  S
O3066      C3086   1.276       .  A
O3066     Mg3082   2.324       .  S
O3068     Mg4330   2.128       .  S
O3068      C3079   1.241   1_565  S
O3069     Mg3088   2.133       .  S
O3069      C4303   1.242   1_545  S
O3070     Mg3082   2.313       .  S
Mg3071     O3087   2.286       .  S
O3072     Mg3088   2.311       .  S
H3073      C3078   1.081       .  S
O3074     Mg3082   2.099       .  S
O3074      C3077   1.240       .  S
H3075      C3077   1.081       .  S
H3076      C3079   1.081       .  S
O3081     Mg3088   2.306       .  S
Mg3082     O4316   2.128       .  S
C3084      O3089   1.271       .  A
C3084      N3091   1.441       .  S
O3085      C3086   1.268       .  A
N3091      C3095   1.371       .  A
N3091      C3092   1.361       .  A
C3092      C3093   1.371       .  A
C3093      C3094   1.363       .  A
C3093      H3096   1.083       .  S
C3094      C3095   1.394       .  A
C3094      H3097   1.080       .  S
N3098      C3102   1.371       .  A
N3098      C3099   1.359       .  A
C3099      C3100   1.370       .  A
C3100      C3101   1.359       .  A
C3100      H3103   1.082       .  S
C3101      C3102   1.393       .  A
C3101      H3104   1.081       .  S
C3102      C3116   1.493       .  S
N3105      C3109   1.377       .  A
N3105      C3106   1.362       .  A
C3106      C3107   1.374       .  A
C3107      C3108   1.365       .  A
C3107      H3110   1.082       .  S
C3108      C3109   1.389       .  A
C3108      H3111   1.082       .  S
C3112      C3113   1.407       .  A
C3112      C3117   1.390       .  A
C3113      C3114   1.401       .  A
C3113      H3118   1.062       .  S
C3114      C3115   1.418       .  A
C3115      C3116   1.404       .  A
C3115      H3119   1.079       .  S
C3116      C3117   1.414       .  A
C3117      H3120   1.075       .  S
C3121      C3122   1.404       .  A
C3121      C3126   1.414       .  A
C3121      C3457   1.493       .  S
C3122      C3123   1.418       .  A
C3122      H3127   1.079       .  S
C3123      C3124   1.401       .  A
C3123      C3733   1.507       .  S
C3124      C3125   1.407       .  A
C3124      H3128   1.062       .  S
C3125      C3126   1.390       .  A
C3125      C3319   1.497       .  S
C3126      H3129   1.075       .  S
C3130      C3131   1.407       .  A
C3130      C3135   1.409       .  A
C3130      C3719   1.508       .  S
C3131      C3132   1.417       .  A
C3131      H3136   1.064       .  S
C3132      C3133   1.401       .  A
C3132      C3250   1.515       .  S
C3133      C3134   1.412       .  A
C3133      H3137   1.067       .  S
C3134      C3135   1.393       .  A
C3134      C3312   1.494       .  S
C3135      H3138   1.072       .  S
C3139      C3140   1.406       .  A
C3139      C3144   1.417       .  A
C3139      C3512   1.508       .  S
C3140      C3141   1.414       .  A
C3140      H3145   1.065       .  S
C3141      C3142   1.399       .  A
C3141      C3388   1.512       .  S
C3142      C3143   1.410       .  A
C3142      H3146   1.066       .  S
C3143      C3144   1.403       .  A
C3143      C3650   1.505       .  S
C3144      H3147   1.078       .  S
C3148      C3149   1.414       .  A
C3148      C3153   1.399       .  A
C3148      C3519   1.512       .  S
C3149      C3150   1.406       .  A
C3149      H3154   1.065       .  S
C3150      C3151   1.417       .  A
C3150      C3381   1.508       .  S
C3151      C3152   1.403       .  A
C3151      H3155   1.078       .  S
C3152      C3153   1.410       .  A
C3152      C3588   1.505       .  S
C3153      H3156   1.065       .  S
C3157      C3158   1.412       .  A
C3157      C3162   1.393       .  A
C3157      C3243   1.494       .  S
C3158      C3159   1.401       .  A
C3158      H3163   1.067       .  S
C3159      C3160   1.417       .  A
C3159      C3305   1.516       .  S
C3160      C3161   1.407       .  A
C3160      H3164   1.063       .  S
C3161      C3162   1.409       .  A
C3161      C3450   1.508       .  S
C3162      H3165   1.072       .  S
C3166      C3167   1.407       .  A
C3166      C3171   1.400       .  A
C3166      C3664   1.502       .  S
C3167      C3168   1.399       .  A
C3167      H3172   1.066       .  S
C3168      C3169   1.421       .  A
C3168      C3526   1.510       .  S
C3169      C3170   1.410       .  A
C3169      H3173   1.072       .  S
C3170      C3171   1.417       .  A
C3170      C3581   1.518       .  S
C3171      H3174   1.074       .  S
C3175      C3176   1.421       .  A
C3175      C3180   1.399       .  A
C3175      C3374   1.510       .  S
C3176      C3177   1.410       .  A
C3176      H3181   1.072       .  S
C3177      C3178   1.417       .  A
C3177      C3657   1.518       .  S
C3178      C3179   1.400       .  A
C3178      H3182   1.074       .  S
C3179      C3180   1.407       .  A
C3179      C3595   1.502       .  S
C3180      H3183   1.066       .  S
O3184     Mg3186   2.118       .  S
O3184     Mg3192   2.144   1_655  S
O3184      C3219   1.241       .  S
C3185      H3224   1.081       .  S
C3185      O3198   1.242       .  S
C3185      O3222   1.276       .  A
Mg3186     O3230   2.317       .  S
Mg3186     O4474   2.303   1_545  S
Mg3186     O4445   2.299   1_645  S
O3187     Mg3229   2.135       .  S
O3187     Mg3212   2.118       .  S
O3187      C3208   1.242   1_554  S
C3189      O3191   1.269       .  A
C3189      O3203   1.276       .  A
C3189      N3246   1.444       .  S
O3190      C3218   1.273       .  A
O3191     Mg3223   2.255       .  S
Mg3192     O3206   2.287   1_455  S
Mg3192     O3194   2.306   1_455  S
C3193      C3592   1.473       .  S
C3193      O3231   1.271   1_556  A
C3193      O4447   1.275       .  A
H3195      C3208   1.081       .  S
C3196      H3221   1.081       .  S
C3196      O3210   1.241       .  S
C3196      O3211   1.274       .  A
O3197     Mg4434   2.299   1_455  S
O3199      C4441   1.275       .  A
O3199     Mg3229   2.310   1_556  S
C3200      O3213   1.272       .  A
C3200      O3205   1.281       .  A
C3200      N3232   1.449       .  S
C3201      C3523   1.488       .  S
C3201      O3228   1.277   1_654  A
Mg3202     O3209   2.105       .  S
Mg3202     O4458   2.130       .  S
Mg3202     O3203   2.299       .  S
O3204      C4456   1.276   1_554  A
O3205     Mg3212   2.326   1_556  S
O3206      C3225   1.273       .  A
O3207     Mg3223   2.287       .  S
C3208      O4452   1.276   1_556  A
O3209     Mg3223   2.138       .  S
O3209      C3220   1.241       .  S
O3210     Mg4450   2.130   1_545  S
O3211     Mg4471   2.302       .  S
O3213     Mg3229   2.288   1_556  S
H3214      C3219   1.081       .  S
O3215     Mg4471   2.107       .  S
O3215      C3218   1.241       .  S
H3216      C3218   1.081       .  S
H3217      C3220   1.081       .  S
Mg3223     O4463   2.107       .  S
Mg3223     O4459   2.302       .  S
C3225      O3230   1.281       .  A
C3225      N3239   1.447       .  S
O3226      C3227   1.278   1_655  A
O3226     Mg4434   2.303       .  S
C3227      C3385   1.487       .  S
N3232      C3236   1.375       .  A
N3232      C3233   1.359       .  A
C3233      C3234   1.371       .  A
C3233      C3501   1.461   1_556  S
C3234      C3235   1.358       .  A
C3234      H3237   1.083       .  S
C3235      C3236   1.393       .  A
C3235      H3238   1.081       .  S
C3236      C3736   1.497       .  S
N3239      C3243   1.373       .  A
N3239      C3240   1.354       .  A
C3240      C3241   1.370       .  A
C3240      C3327   1.458   1_655  S
C3241      C3242   1.361       .  A
C3241      H3244   1.082       .  S
C3242      C3243   1.393       .  A
C3242      H3245   1.080       .  S
N3246      C3250   1.377       .  A
N3246      C3247   1.361       .  A
C3247      C3248   1.371       .  A
C3247      C4786   1.477       .  S
C3248      C3249   1.364       .  A
C3248      H3251   1.083       .  S
C3249      C3250   1.395       .  A
C3249      H3252   1.079       .  S
O3253     Mg3255   2.118       .  S
O3253      C3288   1.242       .  S
C3254      H3293   1.081       .  S
C3254      O3267   1.241       .  S
C3254      O3291   1.274       .  A
Mg3255     O3284   2.135       .  S
Mg3255     O3299   2.326       .  S
Mg3255     O3295   2.293       .  S
Mg3255     O3266   2.304       .  S
O3256     Mg3298   2.138       .  S
O3256      C3277   1.241       .  S
O3257      C3288   1.276       .  A
C3258      O3260   1.273       .  A
C3258      O3272   1.281       .  A
C3258      N3308   1.447       .  S
O3259      C3287   1.276       .  A
O3259     Mg3261   2.309       .  S
O3260     Mg3292   2.287       .  S
Mg3261     O3267   2.124       .  S
Mg3261     O3275   2.288       .  S
Mg3261     O3263   2.310       .  S
C3262      C3516   1.487       .  S
C3262      O3300   1.278       .  A
C3262      O3268   1.272       .  A
O3263      C3270   1.275       .  A
H3264      C3277   1.081       .  S
C3265      H3290   1.081       .  S
C3265      O3279   1.241       .  S
C3265      O3280   1.273       .  A
O3266      C3289   1.274       .  A
O3267     Mg3281   2.130       .  S
O3268     Mg3298   2.287       .  S
C3269      O3282   1.269       .  A
C3269      O3274   1.276       .  A
C3269      N3301   1.444       .  S
C3270      C3661   1.473       .  S
C3270      O3297   1.271       .  A
Mg3271     O3278   2.118       .  S
Mg3271     O3279   2.135       .  S
Mg3271     O3272   2.317       .  S
Mg3271     O3273   2.299       .  S
Mg3271     O3300   2.303       .  S
O3273      C3277   1.274       .  A
O3274     Mg3281   2.299       .  S
O3275      C3294   1.272       .  A
O3276      C3296   1.275       .  A
O3276     Mg3292   2.306       .  S
O3278     Mg3292   2.143       .  S
O3278      C3289   1.241       .  S
O3279     Mg3298   2.107       .  S
O3280     Mg3292   2.295       .  S
Mg3281     O3297   2.262       .  S
H3283      C3288   1.081       .  S
O3284     Mg3292   2.131       .  S
H3285      C3287   1.081       .  S
H3286      C3289   1.081       .  S
C3294      N3315   1.449       .  S
O3295      C3296   1.277       .  A
C3296      C3371   1.488       .  S
N3301      C3305   1.377       .  A
N3301      C3302   1.361       .  A
C3302      C3303   1.371       .  A
C3302      C3641   1.477       .  S
C3303      C3304   1.364       .  A
C3303      H3306   1.083       .  S
C3304      C3305   1.395       .  A
C3304      H3307   1.079       .  S
N3308      C3312   1.373       .  A
N3308      C3309   1.354       .  A
C3309      C3310   1.370       .  A
C3309      C3476   1.458       .  S
C3310      C3311   1.361       .  A
C3310      H3313   1.082       .  S
C3311      C3312   1.393       .  A
C3311      H3314   1.080       .  S
N3315      C3319   1.375       .  A
N3315      C3316   1.359       .  A
C3316      C3317   1.371       .  A
C3316      C3338   1.461       .  S
C3317      C3318   1.358       .  A
C3317      H3320   1.083       .  S
C3318      C3319   1.393       .  A
C3318      H3321   1.081       .  S
O3322     Mg3324   2.134   1_565  S
O3322     Mg3330   2.126   1_565  S
O3322      C4605   1.242       .  S
C3323      H3362   1.081   1_565  S
C3323      O4584   1.240       .  S
Mg3324     O3353   2.084       .  S
Mg3324     O3368   2.279       .  S
Mg3324     O3364   2.261       .  S
Mg3324     O3335   2.338       .  S
O3325     Mg3350   2.133       .  S
O3325      C3346   1.242       .  S
O3326      C3357   1.279       .  A
O3326     Mg3350   2.340       .  S
C3327      O3341   1.270       .  A
O3328      C3356   1.275       .  A
O3328     Mg3330   2.316       .  S
O3329     Mg3361   2.219       .  S
Mg3330     O4584   2.135   1_545  S
Mg3330     O3344   2.253       .  S
Mg3330     O4580   2.350   1_545  S
C3331      O3369   1.261       .  A
C3331      O3337   1.269       .  A
C3331      N3384   1.440       .  S
O3332      C3339   1.274       .  A
O3332     Mg4578   2.350       .  S
H3333      C3346   1.081       .  S
C3334      H3359   1.081       .  S
C3334      O3348   1.240   1_655  S
O3335      C3358   1.278       .  A
O3336     Mg4578   2.135       .  S
O3336     Mg3350   2.089       .  S
O3336      C4571   1.240       .  S
O3337     Mg3367   2.323       .  S
C3338      O3351   1.265       .  A
C3339      O3366   1.262       .  A
C3339      N3370   1.445       .  S
Mg3340     O3347   2.133       .  S
Mg3340     O4590   2.340   1_545  S
O3342      C3346   1.279       .  A
O3342     Mg4588   2.340       .  S
O3343     Mg3350   2.318       .  S
O3344      C3363   1.270       .  A
O3345      C3365   1.272       .  A
O3345     Mg3361   2.346       .  S
O3347     Mg3361   2.117       .  S
O3347      C3358   1.241       .  S
O3348     Mg4615   2.128   1_445  S
O3349     Mg3361   2.320       .  S
Mg3350     O3366   2.266       .  S
O3351     Mg3367   2.219       .  S
H3352      C3357   1.082       .  S
O3353     Mg3361   2.124       .  S
O3353      C3356   1.240       .  S
H3354      C3356   1.081       .  S
H3355      C3358   1.082       .  S
C3357      O4570   1.242       .  S
O3360     Mg4615   2.316       .  S
C3363      C3723   1.461       .  S
C3363      O3368   1.268       .  A
O3364      C3365   1.260       .  A
C3365      N3377   1.441       .  S
Mg3367     O4596   2.128   1_655  S
Mg3367     O4608   2.316       .  S
N3370      C3374   1.376       .  A
N3370      C3371   1.363       .  A
C3371      C3372   1.375       .  A
C3372      C3373   1.369       .  A
C3372      H3375   1.082       .  S
C3373      C3374   1.390       .  A
C3373      H3376   1.082       .  S
N3377      C3381   1.372       .  A
N3377      C3378   1.360       .  A
C3378      C3379   1.375       .  A
C3378      C3684   1.482       .  S
C3379      C3380   1.369       .  A
C3379      H3382   1.082       .  S
C3380      C3381   1.391       .  A
C3380      H3383   1.082       .  S
N3384      C3388   1.373       .  A
N3384      C3385   1.360   1_655  A
C3385      C3386   1.376       .  A
C3386      C3387   1.369   1_455  A
C3386      H3389   1.083       .  S
C3387      C3388   1.392       .  A
C3387      H3390   1.080       .  S
O3391     Mg3393   2.117       .  S
O3391      C3426   1.241       .  S
C3392      H3431   1.081       .  S
C3392      O3405   1.242       .  S
C3392      O3429   1.276       .  A
Mg3393     O3422   2.132       .  S
Mg3393     O3437   2.305       .  S
Mg3393     O3433   2.286       .  S
Mg3393     O3404   2.297       .  S
O3394     Mg3436   2.128       .  S
O3394      C3415   1.241       .  S
O3395      C3426   1.275       .  A
C3396      O3398   1.272       .  A
C3396      O3410   1.271       .  A
C3396      N3446   1.441       .  S
O3397      C3425   1.275       .  A
O3397     Mg3399   2.306       .  S
O3398     Mg3430   2.264       .  S
Mg3399     O3405   2.133       .  S
Mg3399     O3413   2.311       .  S
Mg3399     O3401   2.339       .  S
C3400      C3585   1.474       .  S
C3400      O3438   1.268       .  A
C3400      O3406   1.276       .  A
O3401      C3408   1.280       .  A
H3402      C3415   1.081       .  S
C3403      H3428   1.081       .  S
C3403      O3417   1.240       .  S
C3403      O3418   1.272       .  A
O3404      C3427   1.273       .  A
O3405     Mg3419   2.131       .  S
O3406     Mg3436   2.325       .  S
C3407      O3420   1.267       .  A
C3407      O3412   1.276       .  A
C3407      N3439   1.448       .  S
C3408      C3654   1.480       .  S
C3408      O3435   1.272       .  A
Mg3409     O3416   2.099       .  S
Mg3409     O3417   2.122       .  S
Mg3409     O3410   2.273       .  S
Mg3409     O3411   2.313       .  S
Mg3409     O3438   2.256       .  S
O3411      C3415   1.275       .  A
O3412     Mg3419   2.310       .  S
O3413      C3432   1.276       .  A
O3414      C3434   1.273       .  A
O3414     Mg3430   2.294       .  S
O3416     Mg3430   2.141       .  S
O3416      C3427   1.240       .  S
O3417     Mg3436   2.099       .  S
O3418     Mg3430   2.293       .  S
Mg3419     O3435   2.264       .  S
H3421      C3426   1.081       .  S
O3422     Mg3430   2.122       .  S
H3423      C3425   1.081       .  S
H3424      C3427   1.081       .  S
C3432      N3453   1.448       .  S
O3433      C3434   1.276       .  A
C3434      C3509   1.482       .  S
N3439      C3443   1.377       .  A
N3439      C3440   1.362       .  A
C3440      C3441   1.374       .  A
C3440      C3615   1.479       .  S
C3441      C3442   1.365       .  A
C3441      H3444   1.082       .  S
C3442      C3443   1.389       .  A
C3442      H3445   1.082       .  S
C3443      C3738   1.507       .  S
N3446      C3450   1.371       .  A
N3446      C3447   1.361       .  A
C3447      C3448   1.371       .  A
C3447      C3546   1.474       .  S
C3448      C3449   1.363       .  A
C3448      H3451   1.083       .  S
C3449      C3450   1.394       .  A
C3449      H3452   1.080       .  S
N3453      C3457   1.372       .  A
N3453      C3454   1.359       .  A
C3454      C3455   1.370       .  A
C3454      C3465   1.461       .  S
C3455      C3456   1.359       .  A
C3455      H3458   1.082       .  S
C3456      C3457   1.393       .  A
C3456      H3459   1.081       .  S
O3460     Mg3462   2.133       .  S
O3460     Mg3468   2.115       .  S
O3460      C3495   1.242       .  S
C3461      H3500   1.081       .  S
C3461      O3474   1.240       .  S
C3461      O3498   1.275       .  A
O3463     Mg3505   2.117       .  S
O3463     Mg3488   2.133       .  S
O3464      C3495   1.279       .  A
O3464     Mg3488   2.340       .  S
C3465      O3467   1.270       .  A
O3466     Mg3468   2.316       .  S
O3467     Mg3499   2.253       .  S
Mg3468     O3474   2.128       .  S
Mg3468     O3482   2.219       .  S
Mg3468     O3470   2.323       .  S
C3469      O3507   1.260       .  A
C3469      O3475   1.272       .  A
C3469      N3508   1.441       .  S
O3470      C3477   1.269       .  A
H3471      C3484   1.082       .  S
C3472      H3497   1.081       .  S
O3473      C3496   1.279       .  A
O3474     Mg3488   2.085       .  S
C3476      O3489   1.265       .  A
C3476      O3481   1.270       .  A
C3477      O3504   1.261       .  A
C3477      N3515   1.440       .  S
Mg3478     O3485   2.134       .  S
Mg3478     O3486   2.084       .  S
Mg3478     O3479   2.279       .  S
Mg3478     O3480   2.338       .  S
Mg3478     O3507   2.261       .  S
O3480      C3484   1.278       .  A
O3481     Mg3488   2.297       .  S
O3483      C3503   1.274       .  A
O3483     Mg3499   2.350       .  S
O3485      C3496   1.242       .  S
Mg3488     O3504   2.264       .  S
O3489     Mg3505   2.219       .  S
H3490      C3495   1.082       .  S
O3491      C3494   1.240   1_554  S
H3492      C3494   1.081       .  S
H3493      C3496   1.082       .  S
O3498     Mg3505   2.320       .  S
C3501      O3506   1.273       .  A
O3502      C3503   1.262       .  A
C3503      N3522   1.445       .  S
N3508      C3512   1.372       .  A
N3508      C3509   1.360       .  A
C3509      C3510   1.375       .  A
C3510      C3511   1.369       .  A
C3510      H3513   1.082       .  S
C3511      C3512   1.391       .  A
C3511      H3514   1.082       .  S
N3515      C3519   1.373       .  A
N3515      C3516   1.360       .  A
C3516      C3517   1.376       .  A
C3517      C3518   1.369       .  A
C3517      H3520   1.083       .  S
C3518      C3519   1.392       .  A
C3518      H3521   1.080       .  S
N3522      C3526   1.376       .  A
N3522      C3523   1.363   1_556  A
C3523      C3524   1.375       .  A
C3524      C3525   1.369   1_554  A
C3524      H3527   1.082       .  S
C3525      C3526   1.390       .  A
C3525      H3528   1.082       .  S
O3529     Mg3537   2.134       .  S
O3529      C3564   1.241       .  S
C3530      H3569   1.081       .  S
C3530      O3543   1.242       .  S
C3530      O3567   1.275       .  A
Mg3531     O3560   2.136       .  S
Mg3531     O3575   2.309       .  S
Mg3531     O4819   2.280       .  S
Mg3531     O4166   2.301   1_545  S
O3532     Mg3574   2.135       .  S
O3532     Mg3557   2.100       .  S
O3532      C3553   1.241       .  S
O3533      C3564   1.274       .  A
O3533     Mg3557   2.309       .  S
C3534      O3536   1.271       .  A
C3534      N3591   1.444       .  S
O3535      C3563   1.274       .  A
O3536     Mg4816   2.276       .  S
Mg3537     O3543   2.122       .  S
Mg3537     O3539   2.302       .  S
C3538      C4495   1.477   1_545  S
C3538      O4824   1.272   1_545  A
C3538      O3544   1.274       .  A
O3539      C3546   1.274       .  A
H3540      C3553   1.081       .  S
C3541      H3566   1.081       .  S
C3541      O3556   1.274       .  A
O3542      C3565   1.273       .  A
O3542     Mg4155   2.301       .  S
O3543     Mg3557   2.129       .  S
O3544     Mg3574   2.303       .  S
C3545      O3558   1.272       .  A
C3545      O3550   1.274       .  A
C3545      N3584   1.444       .  S
C3546      O3573   1.271       .  A
Mg3547     O3554   2.106       .  S
Mg3547     O4803   2.130       .  S
Mg3547     O3548   2.292       .  S
Mg3547     O3549   2.305       .  S
Mg3547     O3576   2.267       .  S
O3549      C4801   1.274       .  A
O3550     Mg3557   2.290       .  S
O3551      C3570   1.271       .  A
O3552      C3572   1.274       .  A
O3552     Mg4816   2.297       .  S
C3553      O4797   1.274       .  A
O3554     Mg4192   2.135       .  S
O3554      C3565   1.240       .  S
O3555     Mg4795   2.130   1_545  S
O3555     Mg3574   2.118       .  S
O3556     Mg3568   2.304       .  S
Mg3557     O3573   2.264       .  S
O3558     Mg3574   2.281       .  S
H3559      C3564   1.081       .  S
O3560     Mg3568   2.116       .  S
O3560      C3563   1.242       .  S
H3561      C3563   1.081       .  S
H3562      C3565   1.081       .  S
O3567     Mg3574   2.308       .  S
Mg3568     O4178   2.135       .  S
Mg3568     O4784   2.276   1_545  S
Mg3568     O4800   2.297   1_545  S
C3570      O3575   1.277       .  A
C3570      N3577   1.445       .  S
O3571      C3572   1.275       .  A
O3571     Mg4779   2.280       .  S
C3572      C3730   1.479       .  S
O3576      C4786   1.272       .  A
N3577      C3581   1.377       .  A
N3577      C3578   1.366       .  A
C3578      C3579   1.370       .  A
C3578      C3676   1.480       .  S
C3579      C3580   1.363       .  A
C3579      H3582   1.083       .  S
C3580      C3581   1.395       .  A
C3580      H3583   1.080       .  S
N3584      C3588   1.372       .  A
N3584      C3585   1.364       .  A
C3585      C3586   1.371       .  A
C3586      C3587   1.363       .  A
C3586      H3589   1.083       .  S
C3587      C3588   1.394       .  A
C3587      H3590   1.081       .  S
N3591      C3595   1.371       .  A
N3591      C3592   1.361       .  A
C3592      C3593   1.373       .  A
C3593      C3594   1.365       .  A
C3593      H3596   1.083       .  S
C3594      C3595   1.393       .  A
C3594      H3597   1.081       .  S
O3598     Mg3600   2.106       .  S
O3598     Mg3606   2.135       .  S
O3598      C3633   1.240       .  S
C3599      H3638   1.081       .  S
C3599      O3612   1.242       .  S
C3599      O3636   1.274       .  A
Mg3600     O3629   2.130       .  S
Mg3600     O3644   2.292       .  S
Mg3600     O3640   2.267       .  S
Mg3600     O3611   2.305       .  S
O3601     Mg3643   2.134       .  S
O3601     Mg3626   2.114       .  S
O3601      C3622   1.241       .  S
O3602      C3633   1.273       .  A
O3602     Mg3626   2.301       .  S
C3603      O3605   1.272       .  A
C3603      O3617   1.274       .  A
C3603      N3646   1.444       .  S
O3604      C3632   1.274       .  A
O3604     Mg3606   2.304       .  S
O3605     Mg3637   2.281       .  S
Mg3606     O3612   2.116       .  S
Mg3606     O3620   2.276       .  S
Mg3606     O3608   2.297       .  S
C3607      C3716   1.474       .  S
C3607      O3645   1.271       .  A
C3607      O3613   1.274       .  A
O3608      C3615   1.274       .  A
H3609      C3622   1.081       .  S
C3610      H3635   1.081       .  S
C3610      O3624   1.242       .  S
C3610      O3625   1.275       .  A
O3611      C3634   1.274       .  A
O3612     Mg3626   2.136       .  S
O3613     Mg3643   2.302       .  S
C3614      O3627   1.271       .  A
C3614      O3619   1.277       .  A
C3614      N3653   1.445       .  S
C3615      O3642   1.275       .  A
Mg3616     O3623   2.100       .  S
Mg3616     O3624   2.129       .  S
Mg3616     O3617   2.290       .  S
Mg3616     O3618   2.309       .  S
Mg3616     O3645   2.264       .  S
O3618      C3622   1.274       .  A
O3619     Mg3626   2.308       .  S
O3620      C3639   1.271       .  A
O3621      C3641   1.274       .  A
O3621     Mg3637   2.303       .  S
O3623     Mg3637   2.135       .  S
O3623      C3634   1.241       .  S
O3624     Mg3643   2.122       .  S
O3625     Mg3637   2.308       .  S
Mg3626     O3642   2.280       .  S
O3627     Mg3643   2.265       .  S
H3628      C3633   1.081       .  S
O3629     Mg3637   2.118       .  S
O3629      C3632   1.242       .  S
H3630      C3632   1.081       .  S
H3631      C3634   1.081       .  S
O3636     Mg3643   2.301       .  S
C3639      O3644   1.275       .  A
C3639      N3660   1.444       .  S
O3640      C3641   1.272       .  A
N3646      C3650   1.372       .  A
N3646      C3647   1.364       .  A
C3647      C3648   1.371       .  A
C3647      C3710   1.473       .  S
C3648      C3649   1.363       .  A
C3648      H3651   1.083       .  S
C3649      C3650   1.394       .  A
C3649      H3652   1.081       .  S
N3653      C3657   1.377       .  A
N3653      C3654   1.366       .  A
C3654      C3655   1.370       .  A
C3655      C3656   1.363       .  A
C3655      H3658   1.083       .  S
C3656      C3657   1.395       .  A
C3656      H3659   1.080       .  S
N3660      C3664   1.371       .  A
N3660      C3661   1.361       .  A
C3661      C3662   1.373       .  A
C3662      C3663   1.365       .  A
C3662      H3665   1.083       .  S
C3663      C3664   1.393       .  A
C3663      H3666   1.081       .  S
O3667     Mg4917   2.099       .  S
O3667     Mg3675   2.141       .  S
O3667      C3702   1.240   1_565  S
C3668      H3707   1.081   1_545  S
C3668      O3681   1.242       .  S
C3668      O3705   1.275       .  A
Mg3669     O4915   2.099       .  S
Mg3669     O3698   2.122       .  S
Mg3669     O3713   2.273       .  S
Mg3669     O3709   2.256       .  S
Mg3669     O4928   2.313       .  S
O3670     Mg3712   2.139       .  S
O3670     Mg3695   2.117       .  S
O3670      C3691   1.241       .  S
O3671      C3702   1.273       .  A
O3671     Mg3695   2.297       .  S
C3672      O3674   1.267       .  A
C3672      O4934   1.276       .  A
C3672      N3729   1.448       .  S
O3673      C3701   1.272       .  A
O3673     Mg4923   2.293       .  S
O3674     Mg3706   2.234       .  S
Mg3675     O3681   2.122   1_565  S
Mg3675     O4921   2.293       .  S
Mg3675     O4937   2.264       .  S
Mg3675     O3677   2.294   1_565  S
C3676      O3714   1.272       .  A
C3676      O3682   1.280       .  A
O3677      C3684   1.273       .  A
H3678      C3691   1.081       .  S
C3679      H3704   1.081       .  S
C3679      O4941   1.242       .  S
C3679      O3694   1.276       .  A
O3680      C3703   1.275   1_565  A
O3680     Mg4917   2.313       .  S
O3681     Mg3695   2.132       .  S
O3682     Mg3712   2.339       .  S
C3683      O3696   1.276       .  A
C3683      O3688   1.279       .  A
C3683      N3722   1.448       .  S
C3684      O3711   1.276       .  A
Mg3685     O3692   2.122   1_545  S
Mg3685     O3693   2.131       .  S
Mg3685     O3686   2.311   1_545  S
Mg3685     O3687   2.309       .  S
Mg3685     O3714   2.264       .  S
O3686      C4920   1.276       .  A
O3687      C3691   1.275       .  A
O3688     Mg3695   2.305       .  S
O3689      C3708   1.272       .  A
O3689     Mg4923   2.264       .  S
O3690      C3710   1.276       .  A
O3690     Mg3706   2.324       .  S
O3692     Mg4954   2.128       .  S
O3692      C3703   1.241   1_565  S
O3693     Mg3712   2.133       .  S
O3693      C4927   1.242   1_545  S
O3694     Mg3706   2.313       .  S
Mg3695     O3711   2.286       .  S
O3696     Mg3712   2.311       .  S
H3697      C3702   1.081       .  S
O3698     Mg3706   2.099       .  S
O3698      C3701   1.240       .  S
H3699      C3701   1.081       .  S
H3700      C3703   1.081       .  S
O3705     Mg3712   2.306       .  S
Mg3706     O4940   2.128       .  S
C3708      O3713   1.271       .  A
C3708      N3715   1.441       .  S
O3709      C3710   1.268       .  A
N3715      C3719   1.371       .  A
N3715      C3716   1.361       .  A
C3716      C3717   1.371       .  A
C3717      C3718   1.363       .  A
C3717      H3720   1.083       .  S
C3718      C3719   1.394       .  A
C3718      H3721   1.080       .  S
N3722      C3726   1.371       .  A
N3722      C3723   1.359       .  A
C3723      C3724   1.370       .  A
C3724      C3725   1.359       .  A
C3724      H3727   1.082       .  S
C3725      C3726   1.393       .  A
C3725      H3728   1.081       .  S
C3726      C3740   1.493       .  S
N3729      C3733   1.377       .  A
N3729      C3730   1.362       .  A
C3730      C3731   1.374       .  A
C3731      C3732   1.365       .  A
C3731      H3734   1.082       .  S
C3732      C3733   1.389       .  A
C3732      H3735   1.082       .  S
C3736      C3737   1.407       .  A
C3736      C3741   1.390       .  A
C3737      C3738   1.401       .  A
C3737      H3742   1.062       .  S
C3738      C3739   1.418       .  A
C3739      C3740   1.404       .  A
C3739      H3743   1.079       .  S
C3740      C3741   1.414       .  A
C3741      H3744   1.075       .  S
C3745      C3746   1.404       .  A
C3745      C3750   1.414       .  A
C3745      C4081   1.493       .  S
C3746      C3747   1.418       .  A
C3746      H3751   1.079       .  S
C3747      C3748   1.401       .  A
C3747      C4357   1.507       .  S
C3748      C3749   1.407       .  A
C3748      H3752   1.061       .  S
C3749      C3750   1.390       .  A
C3749      C3943   1.497       .  S
C3750      H3753   1.075       .  S
C3754      C3755   1.407       .  A
C3754      C3759   1.409       .  A
C3754      C4343   1.508       .  S
C3755      C3756   1.417       .  A
C3755      H3760   1.064       .  S
C3756      C3757   1.401       .  A
C3756      C3874   1.515       .  S
C3757      C3758   1.412       .  A
C3757      H3761   1.067       .  S
C3758      C3759   1.393       .  A
C3758      C3936   1.494       .  S
C3759      H3762   1.072       .  S
C3763      C3764   1.406       .  A
C3763      C3768   1.417       .  A
C3763      C4136   1.508       .  S
C3764      C3765   1.414       .  A
C3764      H3769   1.065       .  S
C3765      C3766   1.399       .  A
C3765      C4012   1.512       .  S
C3766      C3767   1.410       .  A
C3766      H3770   1.066       .  S
C3767      C3768   1.403       .  A
C3767      C4274   1.505       .  S
C3768      H3771   1.078       .  S
C3772      C3773   1.414       .  A
C3772      C3777   1.399       .  A
C3772      C4143   1.512       .  S
C3773      C3774   1.406       .  A
C3773      H3778   1.065       .  S
C3774      C3775   1.417       .  A
C3774      C4005   1.508       .  S
C3775      C3776   1.403       .  A
C3775      H3779   1.078       .  S
C3776      C3777   1.410       .  A
C3776      C4212   1.505       .  S
C3777      H3780   1.065       .  S
C3781      C3782   1.412       .  A
C3781      C3786   1.393       .  A
C3781      C3867   1.494       .  S
C3782      C3783   1.401       .  A
C3782      H3787   1.067       .  S
C3783      C3784   1.417       .  A
C3783      C3929   1.516       .  S
C3784      C3785   1.407       .  A
C3784      H3788   1.063       .  S
C3785      C3786   1.409       .  A
C3785      C4074   1.508       .  S
C3786      H3789   1.072       .  S
C3790      C3791   1.407       .  A
C3790      C3795   1.400       .  A
C3790      C4288   1.502       .  S
C3791      C3792   1.399       .  A
C3791      H3796   1.066       .  S
C3792      C3793   1.421       .  A
C3792      C4150   1.510       .  S
C3793      C3794   1.410       .  A
C3793      H3797   1.072       .  S
C3794      C3795   1.417       .  A
C3794      C4205   1.518       .  S
C3795      H3798   1.074       .  S
C3799      C3800   1.421       .  A
C3799      C3804   1.399       .  A
C3799      C3998   1.510       .  S
C3800      C3801   1.410       .  A
C3800      H3805   1.072       .  S
C3801      C3802   1.417       .  A
C3801      C4281   1.518       .  S
C3802      C3803   1.400       .  A
C3802      H3806   1.074       .  S
C3803      C3804   1.407       .  A
C3803      C4219   1.502       .  S
C3804      H3807   1.066       .  S
O3808     Mg3810   2.118       .  S
O3808     Mg3816   2.144   1_655  S
O3808      C3843   1.241       .  S
C3809      H3848   1.081       .  S
C3809      O3822   1.242       .  S
C3809      O3846   1.276       .  A
Mg3810     O3854   2.317       .  S
O3811     Mg3853   2.135       .  S
O3811     Mg3836   2.118       .  S
O3811      C3832   1.242       .  S
O3812      C4467   1.274       .  A
C3813      O3815   1.269       .  A
C3813      O3827   1.276       .  A
C3813      N3870   1.444       .  S
O3814      C3842   1.273       .  A
O3815     Mg3847   2.255   1_565  S
Mg3816     O3830   2.287   1_455  S
Mg3816     O3818   2.306   1_455  S
C3817      C4216   1.473   1_545  S
C3817      O3855   1.271   1_545  A
O3818      C4449   1.275       .  A
H3819      C3832   1.081       .  S
C3820      H3845   1.081       .  S
C3820      O3834   1.241       .  S
C3820      O3835   1.274       .  A
O3822     Mg4460   2.135       .  S
O3823     Mg3853   2.310       .  S
C3824      O3837   1.272       .  A
C3824      O3829   1.281       .  A
C3824      N3856   1.449       .  S
C3825      C4147   1.488       .  S
C3825      O4442   1.275       .  A
C3825      O3852   1.277   1_655  A
Mg3826     O3833   2.105   1_565  S
Mg3826     O3827   2.299       .  S
Mg3826     O4452   2.312   1_565  S
Mg3826     O4479   2.262       .  S
O3828     Mg4450   2.312   1_545  S
O3829     Mg3836   2.326       .  S
O3830      C3849   1.273       .  A
O3831     Mg3847   2.287   1_565  S
O3833     Mg3847   2.138       .  S
O3833      C3844   1.241   1_545  S
O3834     Mg4477   2.124       .  S
Mg3836     O4446   2.135       .  S
O3837     Mg3853   2.288       .  S
H3838      C3843   1.081       .  S
O3839      C3842   1.241       .  S
H3840      C3842   1.081       .  S
H3841      C3844   1.081       .  S
C3843      O4436   1.274       .  A
O3846     Mg4477   2.309       .  S
C3849      O3854   1.281       .  A
C3849      N3863   1.447       .  S
O3850      C3851   1.278   1_655  A
C3851      C4009   1.487       .  S
Mg3853     O4458   2.124       .  S
Mg3853     O4470   2.309       .  S
O3855     Mg4450   2.262       .  S
N3856      C3860   1.375       .  A
N3856      C3857   1.359       .  A
C3857      C3858   1.371       .  A
C3857      C4125   1.461       .  S
C3858      C3859   1.358       .  A
C3858      H3861   1.083       .  S
C3859      C3860   1.393       .  A
C3859      H3862   1.081       .  S
C3860      C4360   1.497       .  S
N3863      C3867   1.373       .  A
N3863      C3864   1.354       .  A
C3864      C3865   1.370       .  A
C3864      C3951   1.458   1_655  S
C3865      C3866   1.361       .  A
C3865      H3868   1.082       .  S
C3866      C3867   1.393       .  A
C3866      H3869   1.080       .  S
N3870      C3874   1.377       .  A
N3870      C3871   1.361       .  A
C3871      C3872   1.371       .  A
C3872      C3873   1.364       .  A
C3872      H3875   1.083   1_565  S
C3873      C3874   1.395       .  A
C3873      H3876   1.079       .  S
O3877     Mg3879   2.118       .  S
O3877      C3912   1.242       .  S
C3878      H3917   1.081       .  S
C3878      O3891   1.241       .  S
C3878      O3915   1.274       .  A
Mg3879     O3908   2.135       .  S
Mg3879     O3923   2.326       .  S
Mg3879     O3919   2.293       .  S
Mg3879     O3890   2.304       .  S
O3880     Mg3922   2.138       .  S
O3880      C3901   1.241       .  S
O3881      C3912   1.276       .  A
C3882      O3884   1.273       .  A
C3882      O3896   1.281       .  A
C3882      N3932   1.447       .  S
O3883      C3911   1.276       .  A
O3883     Mg3885   2.309       .  S
O3884     Mg3916   2.287       .  S
Mg3885     O3891   2.124       .  S
Mg3885     O3899   2.288       .  S
Mg3885     O3887   2.310       .  S
C3886      C4140   1.487       .  S
C3886      O3924   1.278       .  A
C3886      O3892   1.272       .  A
O3887      C3894   1.275       .  A
H3888      C3901   1.081       .  S
C3889      H3914   1.081       .  S
C3889      O3903   1.241       .  S
C3889      O3904   1.273       .  A
O3890      C3913   1.274       .  A
O3891     Mg3905   2.130       .  S
O3892     Mg3922   2.287       .  S
C3893      O3906   1.269       .  A
C3893      O3898   1.276       .  A
C3893      N3925   1.444       .  S
C3894      C4285   1.473       .  S
C3894      O3921   1.271       .  A
Mg3895     O3902   2.118       .  S
Mg3895     O3903   2.135       .  S
Mg3895     O3896   2.317       .  S
Mg3895     O3897   2.299       .  S
Mg3895     O3924   2.303       .  S
O3897      C3901   1.274       .  A
O3898     Mg3905   2.299       .  S
O3899      C3918   1.272       .  A
O3900      C3920   1.275       .  A
O3900     Mg3916   2.306       .  S
O3902     Mg3916   2.143       .  S
O3902      C3913   1.241       .  S
O3903     Mg3922   2.107       .  S
O3904     Mg3916   2.295       .  S
Mg3905     O3921   2.262       .  S
H3907      C3912   1.081       .  S
O3908     Mg3916   2.131       .  S
H3909      C3911   1.081       .  S
H3910      C3913   1.081       .  S
C3918      N3939   1.449       .  S
O3919      C3920   1.277       .  A
C3920      C3995   1.488       .  S
N3925      C3929   1.377       .  A
N3925      C3926   1.361       .  A
C3926      C3927   1.371       .  A
C3926      C4265   1.477       .  S
C3927      C3928   1.364       .  A
C3927      H3930   1.083       .  S
C3928      C3929   1.395       .  A
C3928      H3931   1.079       .  S
N3932      C3936   1.373       .  A
N3932      C3933   1.354       .  A
C3933      C3934   1.370       .  A
C3933      C4100   1.458       .  S
C3934      C3935   1.361       .  A
C3934      H3937   1.082       .  S
C3935      C3936   1.393       .  A
C3935      H3938   1.080       .  S
N3939      C3943   1.375       .  A
N3939      C3940   1.359       .  A
C3940      C3941   1.371       .  A
C3940      C3962   1.461       .  S
C3941      C3942   1.358       .  A
C3941      H3944   1.083       .  S
C3942      C3943   1.393       .  A
C3942      H3945   1.081       .  S
O3946     Mg3948   2.134       .  S
O3946     Mg3954   2.126       .  S
C3947      H3986   1.081       .  S
Mg3948     O3977   2.084       .  S
Mg3948     O3992   2.279       .  S
Mg3948     O3988   2.261       .  S
Mg3948     O3959   2.338       .  S
O3949     Mg3974   2.133       .  S
O3949      C3970   1.242       .  S
O3950      C3981   1.279       .  A
O3950     Mg3974   2.340       .  S
C3951      O3965   1.270       .  A
O3952      C3980   1.275       .  A
O3952     Mg3954   2.316       .  S
O3953     Mg3985   2.219       .  S
Mg3954     O3968   2.253       .  S
C3955      O3993   1.261       .  A
C3955      O3961   1.269       .  A
C3955      N4008   1.440       .  S
O3956      C3963   1.274       .  A
H3957      C3970   1.082       .  S
C3958      H3983   1.081       .  S
C3958      O3972   1.240   1_655  S
O3959      C3982   1.278       .  A
O3960     Mg3974   2.089       .  S
O3961     Mg3991   2.323       .  S
C3962      O3975   1.265       .  A
C3963      O3990   1.262       .  A
C3963      N3994   1.445       .  S
Mg3964     O3971   2.133       .  S
O3966      C3970   1.279       .  A
O3967     Mg3974   2.318       .  S
O3968      C3987   1.270       .  A
O3969      C3989   1.272       .  A
O3969     Mg3985   2.346       .  S
O3971     Mg3985   2.117       .  S
O3971      C3982   1.241       .  S
O3973     Mg3985   2.320       .  S
Mg3974     O3990   2.266       .  S
O3975     Mg3991   2.219       .  S
H3976      C3981   1.082       .  S
O3977     Mg3985   2.124       .  S
O3977      C3980   1.240       .  S
H3978      C3980   1.081       .  S
H3979      C3982   1.082       .  S
C3987      C4347   1.461       .  S
C3987      O3992   1.268       .  A
O3988      C3989   1.260       .  A
C3989      N4001   1.441       .  S
N3994      C3998   1.376       .  A
N3994      C3995   1.363       .  A
C3995      C3996   1.375       .  A
C3996      C3997   1.369       .  A
C3996      H3999   1.082       .  S
C3997      C3998   1.390       .  A
C3997      H4000   1.082       .  S
N4001      C4005   1.372       .  A
N4001      C4002   1.360       .  A
C4002      C4003   1.375       .  A
C4002      C4308   1.482       .  S
C4003      C4004   1.369       .  A
C4003      H4006   1.082       .  S
C4004      C4005   1.391       .  A
C4004      H4007   1.082       .  S
N4008      C4012   1.373       .  A
N4008      C4009   1.360   1_655  A
C4009      C4010   1.376       .  A
C4010      C4011   1.369   1_455  A
C4010      H4013   1.083       .  S
C4011      C4012   1.392       .  A
C4011      H4014   1.080       .  S
O4015     Mg4017   2.117   1_556  S
O4015     Mg4647   2.139       .  S
O4015      C4050   1.241   1_556  S
C4016      H4055   1.081       .  S
C4016      O4029   1.242       .  S
C4016      O4053   1.276       .  A
Mg4017     O4046   2.132       .  S
Mg4017     O4061   2.305   1_554  S
Mg4017     O4057   2.286       .  S
Mg4017     O4028   2.297       .  S
O4018     Mg4060   2.128       .  S
O4018     Mg4667   2.122       .  S
O4018      C4039   1.241   1_556  S
O4019      C4050   1.275   1_556  A
O4019     Mg4667   2.309       .  S
C4020      O4022   1.272       .  A
C4020      O4034   1.271       .  A
C4020      N4070   1.441       .  S
O4021      C4049   1.275       .  A
O4021     Mg4023   2.306       .  S
O4022     Mg4054   2.264       .  S
Mg4023     O4639   2.139       .  S
Mg4023     O4029   2.133       .  S
Mg4023     O4037   2.311       .  S
Mg4023     O4025   2.339       .  S
C4024      C4209   1.474       .  S
C4024      O4062   1.268       .  A
C4024      O4030   1.276       .  A
O4025      C4032   1.280       .  A
H4026      C4039   1.081       .  S
C4027      H4052   1.081   1_554  S
C4027      O4041   1.240       .  S
C4027      O4042   1.272       .  A
O4028      C4051   1.273       .  A
O4029     Mg4043   2.131       .  S
O4030     Mg4060   2.325   1_554  S
C4031      O4044   1.267       .  A
C4031      O4036   1.276       .  A
C4031      N4063   1.448       .  S
C4032      C4278   1.480       .  S
C4032      O4059   1.272       .  A
Mg4033     O4040   2.099       .  S
Mg4033     O4041   2.122       .  S
Mg4033     O4034   2.273       .  S
Mg4033     O4035   2.313       .  S
Mg4033     O4062   2.256       .  S
O4035      C4039   1.275       .  A
O4036     Mg4043   2.310       .  S
O4037      C4056   1.276       .  A
O4038      C4058   1.273       .  A
O4038     Mg4054   2.294       .  S
O4040     Mg4054   2.141       .  S
O4040      C4051   1.240       .  S
O4041     Mg4060   2.099   1_554  S
O4042     Mg4054   2.293       .  S
Mg4043     O4642   2.122       .  S
Mg4043     O4643   2.309       .  S
Mg4043     O4059   2.264       .  S
O4044     Mg4684   2.234       .  S
H4045      C4050   1.081       .  S
O4046     Mg4054   2.122       .  S
O4046      C4673   1.242   1_554  S
H4047      C4049   1.081       .  S
H4048      C4051   1.081       .  S
C4049      O4670   1.242       .  S
O4053     Mg4684   2.313       .  S
C4056      O4685   1.279       .  A
C4056      N4077   1.448       .  S
O4057      C4058   1.276       .  A
C4058      C4133   1.482       .  S
Mg4060     O4668   2.234       .  S
Mg4060     O4677   2.313       .  S
O4061      C4680   1.279       .  A
N4063      C4067   1.377       .  A
N4063      C4064   1.362       .  A
C4064      C4065   1.374       .  A
C4064      C4239   1.479       .  S
C4065      C4066   1.365       .  A
C4065      H4068   1.082       .  S
C4066      C4067   1.389       .  A
C4066      H4069   1.082       .  S
C4067      C4362   1.507       .  S
N4070      C4074   1.371       .  A
N4070      C4071   1.361       .  A
C4071      C4072   1.371       .  A
C4071      C4170   1.474       .  S
C4072      C4073   1.363       .  A
C4072      H4075   1.083       .  S
C4073      C4074   1.394       .  A
C4073      H4076   1.080       .  S
N4077      C4081   1.372       .  A
N4077      C4078   1.359       .  A
C4078      C4079   1.370       .  A
C4078      C4089   1.461       .  S
C4079      C4080   1.359       .  A
C4079      H4082   1.082       .  S
C4080      C4081   1.393       .  A
C4080      H4083   1.081       .  S
O4084     Mg4086   2.133       .  S
O4084     Mg4092   2.115       .  S
O4084      C4119   1.242       .  S
C4085      H4124   1.081       .  S
C4085      O4098   1.240       .  S
C4085      O4122   1.275       .  A
Mg4086     O4739   2.089       .  S
Mg4086     O4754   2.318       .  S
O4087     Mg4129   2.117       .  S
O4087     Mg4112   2.133       .  S
O4088      C4119   1.279       .  A
O4088     Mg4112   2.340       .  S
C4089      O4091   1.270       .  A
C4089      O4727   1.268       .  A
O4090      C4742   1.275   1_554  A
O4090     Mg4092   2.316       .  S
O4091     Mg4123   2.253       .  S
Mg4092     O4098   2.128       .  S
Mg4092     O4106   2.219       .  S
Mg4092     O4094   2.323       .  S
C4093      O4131   1.260       .  A
C4093      O4099   1.272       .  A
C4093      N4132   1.441       .  S
O4094      C4101   1.269       .  A
H4095      C4108   1.082       .  S
C4096      H4121   1.081       .  S
C4096      O4735   1.275       .  A
O4097      C4120   1.279       .  A
O4098     Mg4112   2.085       .  S
C4100      O4113   1.265       .  A
C4100      O4105   1.270       .  A
C4101      O4128   1.261       .  A
C4101      N4139   1.440       .  S
Mg4102     O4109   2.134       .  S
Mg4102     O4110   2.084       .  S
Mg4102     O4103   2.279       .  S
Mg4102     O4104   2.338       .  S
Mg4102     O4131   2.261       .  S
O4103      C4713   1.268   1_554  A
O4104      C4108   1.278       .  A
O4105     Mg4112   2.297       .  S
O4106      C4749   1.265       .  A
O4107      C4127   1.274       .  A
O4107     Mg4123   2.350       .  S
O4109     Mg4747   2.126   1_554  S
O4109      C4120   1.242       .  S
O4111      C4720   1.275       .  A
Mg4112     O4128   2.264       .  S
O4113     Mg4129   2.219       .  S
H4114      C4119   1.081       .  S
O4115     Mg4710   2.089       .  S
O4115      C4118   1.240       .  S
H4116      C4118   1.081       .  S
H4117      C4120   1.082       .  S
C4118      O4714   1.275       .  A
O4122     Mg4129   2.320       .  S
Mg4123     O4733   2.126       .  S
C4125      O4730   1.265       .  A
C4125      O4130   1.273       .  A
O4126      C4127   1.262       .  A
C4127      N4146   1.445       .  S
O4130     Mg4710   2.318       .  S
N4132      C4136   1.372       .  A
N4132      C4133   1.360       .  A
C4133      C4134   1.375       .  A
C4134      C4135   1.369       .  A
C4134      H4137   1.082       .  S
C4135      C4136   1.391       .  A
C4135      H4138   1.082       .  S
N4139      C4143   1.373       .  A
N4139      C4140   1.360       .  A
C4140      C4141   1.376       .  A
C4141      C4142   1.369       .  A
C4141      H4144   1.083       .  S
C4142      C4143   1.392       .  A
C4142      H4145   1.080       .  S
N4146      C4150   1.376       .  A
N4146      C4147   1.363       .  A
C4147      C4148   1.375       .  A
C4148      C4149   1.369       .  A
C4148      H4151   1.082       .  S
C4149      C4150   1.390       .  A
C4149      H4152   1.082       .  S
O4153     Mg4779   2.114       .  S
O4153     Mg4161   2.134       .  S
O4153      C4188   1.241   1_556  S
C4154      H4193   1.081   1_554  S
C4154      O4167   1.242       .  S
C4154      O4191   1.275       .  A
Mg4155     O4777   2.114       .  S
Mg4155     O4184   2.136       .  S
Mg4155     O4199   2.309       .  S
O4156     Mg4198   2.135       .  S
O4156     Mg4181   2.100       .  S
O4156      C4177   1.241       .  S
O4157      C4188   1.274       .  A
O4157     Mg4181   2.309       .  S
C4158      O4160   1.271       .  A
C4158      O4796   1.275       .  A
C4158      N4215   1.444       .  S
O4159      C4187   1.274       .  A
O4159     Mg4785   2.301       .  S
Mg4161     O4167   2.122   1_556  S
Mg4161     O4783   2.301       .  S
Mg4161     O4799   2.265       .  S
Mg4161     O4163   2.302   1_556  S
C4162      O4168   1.274       .  A
O4163      C4170   1.274       .  A
H4164      C4177   1.081       .  S
C4165      H4190   1.081       .  S
C4165      O4803   1.242       .  S
C4165      O4180   1.274       .  A
O4166      C4189   1.273       .  A
O4167     Mg4181   2.129       .  S
O4168     Mg4198   2.303       .  S
C4169      O4182   1.272       .  A
C4169      O4174   1.274       .  A
C4169      N4208   1.444       .  S
C4170      O4197   1.271       .  A
Mg4171     O4178   2.106   1_564  S
Mg4171     O4172   2.292   1_554  S
Mg4171     O4173   2.305   1_565  S
Mg4171     O4200   2.267       .  S
O4172      C4782   1.275       .  A
O4174     Mg4181   2.290       .  S
O4175      C4194   1.271       .  A
O4175     Mg4785   2.265       .  S
O4176      C4196   1.274       .  A
O4178      C4189   1.240   1_545  S
O4179     Mg4198   2.118       .  S
O4179      C4789   1.242   1_554  S
O4180     Mg4192   2.304       .  S
Mg4181     O4197   2.264       .  S
O4182     Mg4198   2.281       .  S
H4183      C4188   1.081       .  S
O4184     Mg4192   2.116       .  S
O4184      C4187   1.242       .  S
H4185      C4187   1.081       .  S
H4186      C4189   1.081   1_554  S
O4191     Mg4198   2.308       .  S
C4194      O4199   1.277       .  A
C4194      N4201   1.445       .  S
O4195      C4196   1.275   1_545  A
C4196      C4354   1.479       .  S
N4201      C4205   1.377       .  A
N4201      C4202   1.366       .  A
C4202      C4203   1.370       .  A
C4202      C4300   1.480       .  S
C4203      C4204   1.363       .  A
C4203      H4206   1.083       .  S
C4204      C4205   1.395       .  A
C4204      H4207   1.080       .  S
N4208      C4212   1.372       .  A
N4208      C4209   1.364       .  A
C4209      C4210   1.371       .  A
C4210      C4211   1.363       .  A
C4210      H4213   1.083       .  S
C4211      C4212   1.394       .  A
C4211      H4214   1.081       .  S
N4215      C4219   1.371       .  A
N4215      C4216   1.361       .  A
C4216      C4217   1.373       .  A
C4217      C4218   1.365       .  A
C4217      H4220   1.083   1_565  S
C4218      C4219   1.393       .  A
C4218      H4221   1.081       .  S
O4222     Mg4224   2.106       .  S
O4222     Mg4230   2.135       .  S
O4222      C4257   1.240       .  S
C4223      H4262   1.081       .  S
C4223      O4236   1.242       .  S
C4223      O4260   1.274       .  A
Mg4224     O4253   2.130       .  S
Mg4224     O4268   2.292       .  S
Mg4224     O4264   2.267       .  S
Mg4224     O4235   2.305       .  S
O4225     Mg4267   2.134       .  S
O4225     Mg4250   2.114       .  S
O4225      C4246   1.241       .  S
O4226      C4257   1.273       .  A
O4226     Mg4250   2.301       .  S
C4227      O4229   1.272       .  A
C4227      O4241   1.274       .  A
C4227      N4270   1.444       .  S
O4228      C4256   1.274       .  A
O4228     Mg4230   2.304       .  S
O4229     Mg4261   2.281       .  S
Mg4230     O4236   2.116       .  S
Mg4230     O4244   2.276       .  S
Mg4230     O4232   2.297       .  S
C4231      C4340   1.474       .  S
C4231      O4269   1.271       .  A
C4231      O4237   1.274       .  A
O4232      C4239   1.274       .  A
H4233      C4246   1.081       .  S
C4234      H4259   1.081       .  S
C4234      O4248   1.242       .  S
C4234      O4249   1.275       .  A
O4235      C4258   1.274       .  A
O4236     Mg4250   2.136       .  S
O4237     Mg4267   2.302       .  S
C4238      O4251   1.271       .  A
C4238      O4243   1.277       .  A
C4238      N4277   1.445       .  S
C4239      O4266   1.275       .  A
Mg4240     O4247   2.100       .  S
Mg4240     O4248   2.129       .  S
Mg4240     O4241   2.290       .  S
Mg4240     O4242   2.309       .  S
Mg4240     O4269   2.264       .  S
O4242      C4246   1.274       .  A
O4243     Mg4250   2.308       .  S
O4244      C4263   1.271       .  A
O4245      C4265   1.274       .  A
O4245     Mg4261   2.303       .  S
O4247     Mg4261   2.135       .  S
O4247      C4258   1.241       .  S
O4248     Mg4267   2.122       .  S
O4249     Mg4261   2.308       .  S
Mg4250     O4266   2.280       .  S
O4251     Mg4267   2.265       .  S
H4252      C4257   1.081       .  S
O4253     Mg4261   2.118       .  S
O4253      C4256   1.242       .  S
H4254      C4256   1.081       .  S
H4255      C4258   1.081       .  S
O4260     Mg4267   2.301       .  S
C4263      O4268   1.275       .  A
C4263      N4284   1.444       .  S
O4264      C4265   1.272       .  A
N4270      C4274   1.372       .  A
N4270      C4271   1.364       .  A
C4271      C4272   1.371       .  A
C4271      C4334   1.473       .  S
C4272      C4273   1.363       .  A
C4272      H4275   1.083       .  S
C4273      C4274   1.394       .  A
C4273      H4276   1.081       .  S
N4277      C4281   1.377       .  A
N4277      C4278   1.366       .  A
C4278      C4279   1.370       .  A
C4279      C4280   1.363       .  A
C4279      H4282   1.083       .  S
C4280      C4281   1.395       .  A
C4280      H4283   1.080       .  S
N4284      C4288   1.371       .  A
N4284      C4285   1.361       .  A
C4285      C4286   1.373       .  A
C4286      C4287   1.365       .  A
C4286      H4289   1.083       .  S
C4287      C4288   1.393       .  A
C4287      H4290   1.081       .  S
O4291     Mg4299   2.141       .  S
O4291      C4326   1.240       .  S
C4292      H4331   1.081       .  S
C4292      O4305   1.242       .  S
C4292      O4329   1.275       .  A
Mg4293     O4322   2.122       .  S
Mg4293     O4337   2.273       .  S
Mg4293     O4333   2.256       .  S
O4294     Mg4336   2.139       .  S
O4294     Mg4319   2.117       .  S
O4294      C4315   1.241       .  S
O4295      C4326   1.273       .  A
O4295     Mg4319   2.297       .  S
C4296      O4298   1.267       .  A
C4296      N4353   1.448       .  S
O4297      C4325   1.272       .  A
O4298     Mg4330   2.234       .  S
Mg4299     O4305   2.122       .  S
Mg4299     O4301   2.294       .  S
C4300      O4338   1.272       .  A
C4300      O4306   1.280       .  A
O4301      C4308   1.273       .  A
H4302      C4315   1.081       .  S
C4303      H4328   1.081       .  S
C4303      O4318   1.276       .  A
O4304      C4327   1.275       .  A
O4305     Mg4319   2.132       .  S
O4306     Mg4336   2.339       .  S
C4307      O4320   1.276       .  A
C4307      O4312   1.279       .  A
C4307      N4346   1.448       .  S
C4308      O4335   1.276       .  A
Mg4309     O4316   2.122       .  S
Mg4309     O4317   2.131       .  S
Mg4309     O4310   2.311       .  S
Mg4309     O4311   2.309       .  S
Mg4309     O4338   2.264       .  S
O4311      C4315   1.275       .  A
O4312     Mg4319   2.305       .  S
O4313      C4332   1.272       .  A
O4314      C4334   1.276       .  A
O4314     Mg4330   2.324       .  S
O4316      C4327   1.241       .  S
O4317     Mg4336   2.133       .  S
O4318     Mg4330   2.313       .  S
Mg4319     O4335   2.286       .  S
O4320     Mg4336   2.311       .  S
H4321      C4326   1.081       .  S
O4322     Mg4330   2.099       .  S
O4322      C4325   1.240       .  S
H4323      C4325   1.081       .  S
H4324      C4327   1.081       .  S
O4329     Mg4336   2.306       .  S
C4332      O4337   1.271       .  A
C4332      N4339   1.441       .  S
O4333      C4334   1.268       .  A
N4339      C4343   1.371       .  A
N4339      C4340   1.361       .  A
C4340      C4341   1.371       .  A
C4341      C4342   1.363       .  A
C4341      H4344   1.083       .  S
C4342      C4343   1.394       .  A
C4342      H4345   1.080       .  S
N4346      C4350   1.371       .  A
N4346      C4347   1.359       .  A
C4347      C4348   1.370       .  A
C4348      C4349   1.359       .  A
C4348      H4351   1.082       .  S
C4349      C4350   1.393       .  A
C4349      H4352   1.081       .  S
C4350      C4364   1.493       .  S
N4353      C4357   1.377       .  A
N4353      C4354   1.362       .  A
C4354      C4355   1.374       .  A
C4355      C4356   1.365       .  A
C4355      H4358   1.082       .  S
C4356      C4357   1.389       .  A
C4356      H4359   1.082       .  S
C4360      C4361   1.407       .  A
C4360      C4365   1.390       .  A
C4361      C4362   1.401       .  A
C4361      H4366   1.062       .  S
C4362      C4363   1.418       .  A
C4363      C4364   1.404       .  A
C4363      H4367   1.079       .  S
C4364      C4365   1.414       .  A
C4365      H4368   1.076       .  S
C4369      C4370   1.404       .  A
C4369      C4374   1.414       .  A
C4369      C4705   1.493       .  S
C4370      C4371   1.418       .  A
C4370      H4375   1.079       .  S
C4371      C4372   1.401       .  A
C4371      C4981   1.507       .  S
C4372      C4373   1.407       .  A
C4372      H4376   1.062       .  S
C4373      C4374   1.390       .  A
C4373      C4567   1.497       .  S
C4374      H4377   1.075       .  S
C4378      C4379   1.407       .  A
C4378      C4383   1.409       .  A
C4378      C4967   1.508       .  S
C4379      C4380   1.417       .  A
C4379      H4384   1.064       .  S
C4380      C4381   1.401       .  A
C4380      C4498   1.515       .  S
C4381      C4382   1.412       .  A
C4381      H4385   1.067       .  S
C4382      C4383   1.393       .  A
C4382      C4560   1.494       .  S
C4383      H4386   1.072       .  S
C4387      C4388   1.406       .  A
C4387      C4392   1.417       .  A
C4387      C4760   1.508       .  S
C4388      C4389   1.414       .  A
C4388      H4393   1.065       .  S
C4389      C4390   1.399       .  A
C4389      C4636   1.512       .  S
C4390      C4391   1.410       .  A
C4390      H4394   1.066       .  S
C4391      C4392   1.403       .  A
C4391      C4898   1.505       .  S
C4392      H4395   1.078       .  S
C4396      C4397   1.414       .  A
C4396      C4401   1.399       .  A
C4396      C4767   1.512       .  S
C4397      C4398   1.406       .  A
C4397      H4402   1.065       .  S
C4398      C4399   1.417       .  A
C4398      C4629   1.508       .  S
C4399      C4400   1.403       .  A
C4399      H4403   1.078       .  S
C4400      C4401   1.410       .  A
C4400      C4836   1.505       .  S
C4401      H4404   1.065       .  S
C4405      C4406   1.412       .  A
C4405      C4410   1.393       .  A
C4405      C4491   1.494       .  S
C4406      C4407   1.401       .  A
C4406      H4411   1.067       .  S
C4407      C4408   1.417       .  A
C4407      C4553   1.516       .  S
C4408      C4409   1.407       .  A
C4408      H4412   1.063       .  S
C4409      C4410   1.409       .  A
C4409      C4698   1.508       .  S
C4410      H4413   1.072       .  S
C4414      C4415   1.407       .  A
C4414      C4419   1.400       .  A
C4414      C4912   1.502       .  S
C4415      C4416   1.399       .  A
C4415      H4420   1.066       .  S
C4416      C4417   1.421       .  A
C4416      C4774   1.510       .  S
C4417      C4418   1.410       .  A
C4417      H4421   1.072       .  S
C4418      C4419   1.417       .  A
C4418      C4829   1.518       .  S
C4419      H4422   1.074       .  S
C4423      C4424   1.421       .  A
C4423      C4428   1.399       .  A
C4423      C4622   1.510       .  S
C4424      C4425   1.410       .  A
C4424      H4429   1.072       .  S
C4425      C4426   1.417       .  A
C4425      C4905   1.518       .  S
C4426      C4427   1.400       .  A
C4426      H4430   1.074       .  S
C4427      C4428   1.407       .  A
C4427      C4843   1.502       .  S
C4428      H4431   1.066       .  S
O4432     Mg4434   2.118       .  S
O4432     Mg4440   2.144   1_655  S
O4432      C4467   1.241       .  S
C4433      H4472   1.081       .  S
C4433      O4446   1.242       .  S
C4433      O4470   1.276       .  A
Mg4434     O4478   2.317       .  S
O4435     Mg4477   2.135       .  S
O4435     Mg4460   2.118       .  S
O4435      C4456   1.242   1_554  S
C4437      O4439   1.269       .  A
C4437      O4451   1.276       .  A
C4437      N4494   1.444       .  S
O4438      C4466   1.273       .  A
O4439     Mg4471   2.255   1_565  S
Mg4440     O4454   2.287   1_455  S
Mg4440     O4442   2.306   1_455  S
C4441      C4840   1.473   1_545  S
C4441      O4479   1.271   1_546  A
H4443      C4456   1.081       .  S
C4444      H4469   1.081       .  S
C4444      O4458   1.241       .  S
C4444      O4459   1.274       .  A
O4447     Mg4477   2.310   1_556  S
C4448      O4461   1.272       .  A
C4448      O4453   1.281       .  A
C4448      N4480   1.449       .  S
C4449      C4771   1.488       .  S
C4449      O4476   1.277   1_654  A
Mg4450     O4457   2.105   1_565  S
Mg4450     O4451   2.299       .  S
O4453     Mg4460   2.326   1_556  S
O4454      C4473   1.273       .  A
O4455     Mg4471   2.287   1_565  S
O4457     Mg4471   2.138       .  S
O4457      C4468   1.241   1_545  S
O4461     Mg4477   2.288   1_556  S
H4462      C4467   1.081       .  S
O4463      C4466   1.241       .  S
H4464      C4466   1.081       .  S
H4465      C4468   1.081       .  S
C4473      O4478   1.281       .  A
C4473      N4487   1.447       .  S
O4474      C4475   1.278   1_655  A
C4475      C4633   1.487       .  S
N4480      C4484   1.375       .  A
N4480      C4481   1.359       .  A
C4481      C4482   1.371       .  A
C4481      C4749   1.461   1_556  S
C4482      C4483   1.358       .  A
C4482      H4485   1.083       .  S
C4483      C4484   1.393       .  A
C4483      H4486   1.081       .  S
C4484      C4984   1.497       .  S
N4487      C4491   1.373       .  A
N4487      C4488   1.354       .  A
C4488      C4489   1.370       .  A
C4488      C4575   1.458   1_655  S
C4489      C4490   1.361       .  A
C4489      H4492   1.082       .  S
C4490      C4491   1.393       .  A
C4490      H4493   1.080       .  S
N4494      C4498   1.377       .  A
N4494      C4495   1.361       .  A
C4495      C4496   1.371       .  A
C4496      C4497   1.364       .  A
C4496      H4499   1.083   1_565  S
C4497      C4498   1.395       .  A
C4497      H4500   1.079       .  S
O4501     Mg4503   2.118       .  S
O4501      C4536   1.242       .  S
C4502      H4541   1.081       .  S
C4502      O4515   1.241       .  S
C4502      O4539   1.274       .  A
Mg4503     O4532   2.135       .  S
Mg4503     O4547   2.326       .  S
Mg4503     O4543   2.293       .  S
Mg4503     O4514   2.304       .  S
O4504     Mg4546   2.138       .  S
O4504      C4525   1.241       .  S
O4505      C4536   1.276       .  A
C4506      O4508   1.273       .  A
C4506      O4520   1.281       .  A
C4506      N4556   1.447       .  S
O4507      C4535   1.276       .  A
O4507     Mg4509   2.309       .  S
O4508     Mg4540   2.287       .  S
Mg4509     O4515   2.124       .  S
Mg4509     O4523   2.288       .  S
Mg4509     O4511   2.310       .  S
C4510      C4764   1.487       .  S
C4510      O4548   1.278       .  A
C4510      O4516   1.272       .  A
O4511      C4518   1.275       .  A
H4512      C4525   1.081       .  S
C4513      H4538   1.081       .  S
C4513      O4527   1.241       .  S
C4513      O4528   1.273       .  A
O4514      C4537   1.274       .  A
O4515     Mg4529   2.130       .  S
O4516     Mg4546   2.287       .  S
C4517      O4530   1.269       .  A
C4517      O4522   1.276       .  A
C4517      N4549   1.444       .  S
C4518      C4909   1.473       .  S
C4518      O4545   1.271       .  A
Mg4519     O4526   2.118       .  S
Mg4519     O4527   2.135       .  S
Mg4519     O4520   2.317       .  S
Mg4519     O4521   2.299       .  S
Mg4519     O4548   2.303       .  S
O4521      C4525   1.274       .  A
O4522     Mg4529   2.299       .  S
O4523      C4542   1.272       .  A
O4524      C4544   1.275       .  A
O4524     Mg4540   2.306       .  S
O4526     Mg4540   2.143       .  S
O4526      C4537   1.241       .  S
O4527     Mg4546   2.107       .  S
O4528     Mg4540   2.295       .  S
Mg4529     O4545   2.262       .  S
H4531      C4536   1.081       .  S
O4532     Mg4540   2.131       .  S
H4533      C4535   1.081       .  S
H4534      C4537   1.081       .  S
C4542      N4563   1.449       .  S
O4543      C4544   1.277       .  A
C4544      C4619   1.488       .  S
N4549      C4553   1.377       .  A
N4549      C4550   1.361       .  A
C4550      C4551   1.371       .  A
C4550      C4889   1.477       .  S
C4551      C4552   1.364       .  A
C4551      H4554   1.083       .  S
C4552      C4553   1.395       .  A
C4552      H4555   1.079       .  S
N4556      C4560   1.373       .  A
N4556      C4557   1.354       .  A
C4557      C4558   1.370       .  A
C4557      C4724   1.458       .  S
C4558      C4559   1.361       .  A
C4558      H4561   1.082       .  S
C4559      C4560   1.393       .  A
C4559      H4562   1.080       .  S
N4563      C4567   1.375       .  A
N4563      C4564   1.359       .  A
C4564      C4565   1.371       .  A
C4564      C4586   1.461       .  S
C4565      C4566   1.358       .  A
C4565      H4568   1.083       .  S
C4566      C4567   1.393       .  A
C4566      H4569   1.081       .  S
O4570     Mg4572   2.134       .  S
O4570     Mg4578   2.126       .  S
C4571      H4610   1.081       .  S
Mg4572     O4601   2.084       .  S
Mg4572     O4616   2.279       .  S
Mg4572     O4612   2.261       .  S
Mg4572     O4583   2.338       .  S
O4573     Mg4598   2.133       .  S
O4573      C4594   1.242       .  S
O4574      C4605   1.279       .  A
O4574     Mg4598   2.340       .  S
C4575      O4589   1.270       .  A
O4576      C4604   1.275       .  A
O4576     Mg4578   2.316       .  S
O4577     Mg4609   2.219       .  S
Mg4578     O4592   2.253       .  S
C4579      O4617   1.261       .  A
C4579      O4585   1.269       .  A
C4579      N4632   1.440       .  S
O4580      C4587   1.274       .  A
H4581      C4594   1.082       .  S
C4582      H4607   1.081       .  S
C4582      O4596   1.240   1_655  S
O4583      C4606   1.278       .  A
O4584     Mg4598   2.089       .  S
O4585     Mg4615   2.323       .  S
C4586      O4599   1.265       .  A
C4587      O4614   1.262       .  A
C4587      N4618   1.445       .  S
Mg4588     O4595   2.133       .  S
O4590      C4594   1.279       .  A
O4591     Mg4598   2.318       .  S
O4592      C4611   1.270       .  A
O4593      C4613   1.272       .  A
O4593     Mg4609   2.346       .  S
O4595     Mg4609   2.117       .  S
O4595      C4606   1.241       .  S
O4597     Mg4609   2.320       .  S
Mg4598     O4614   2.266       .  S
O4599     Mg4615   2.219       .  S
H4600      C4605   1.082       .  S
O4601     Mg4609   2.124       .  S
O4601      C4604   1.240       .  S
H4602      C4604   1.081       .  S
H4603      C4606   1.082       .  S
C4611      C4971   1.461       .  S
C4611      O4616   1.268       .  A
O4612      C4613   1.260       .  A
C4613      N4625   1.441       .  S
N4618      C4622   1.376       .  A
N4618      C4619   1.363       .  A
C4619      C4620   1.375       .  A
C4620      C4621   1.369       .  A
C4620      H4623   1.082       .  S
C4621      C4622   1.390       .  A
C4621      H4624   1.082       .  S
N4625      C4629   1.372       .  A
N4625      C4626   1.360       .  A
C4626      C4627   1.375       .  A
C4626      C4932   1.482       .  S
C4627      C4628   1.369       .  A
C4627      H4630   1.082       .  S
C4628      C4629   1.391       .  A
C4628      H4631   1.082       .  S
N4632      C4636   1.373       .  A
N4632      C4633   1.360   1_655  A
C4633      C4634   1.376       .  A
C4634      C4635   1.369   1_455  A
C4634      H4637   1.083       .  S
C4635      C4636   1.392       .  A
C4635      H4638   1.080       .  S
O4639     Mg4641   2.117       .  S
O4639      C4674   1.241       .  S
C4640      H4679   1.081       .  S
C4640      O4653   1.242       .  S
C4640      O4677   1.276       .  A
Mg4641     O4670   2.132       .  S
Mg4641     O4685   2.305       .  S
Mg4641     O4681   2.286       .  S
Mg4641     O4652   2.297       .  S
O4642     Mg4684   2.128       .  S
O4642      C4663   1.241       .  S
O4643      C4674   1.275       .  A
C4644      O4646   1.272       .  A
C4644      O4658   1.271       .  A
C4644      N4694   1.441       .  S
O4645      C4673   1.275       .  A
O4645     Mg4647   2.306       .  S
O4646     Mg4678   2.264       .  S
Mg4647     O4653   2.133       .  S
Mg4647     O4661   2.311       .  S
Mg4647     O4649   2.339       .  S
C4648      C4833   1.474       .  S
C4648      O4686   1.268       .  A
C4648      O4654   1.276       .  A
O4649      C4656   1.280       .  A
H4650      C4663   1.081       .  S
C4651      H4676   1.081       .  S
C4651      O4665   1.240       .  S
C4651      O4666   1.272       .  A
O4652      C4675   1.273       .  A
O4653     Mg4667   2.131       .  S
O4654     Mg4684   2.325       .  S
C4655      O4668   1.267       .  A
C4655      O4660   1.276       .  A
C4655      N4687   1.448       .  S
C4656      C4902   1.480       .  S
C4656      O4683   1.272       .  A
Mg4657     O4664   2.099       .  S
Mg4657     O4665   2.122       .  S
Mg4657     O4658   2.273       .  S
Mg4657     O4659   2.313       .  S
Mg4657     O4686   2.256       .  S
O4659      C4663   1.275       .  A
O4660     Mg4667   2.310       .  S
O4661      C4680   1.276       .  A
O4662      C4682   1.273       .  A
O4662     Mg4678   2.294       .  S
O4664     Mg4678   2.141       .  S
O4664      C4675   1.240       .  S
O4665     Mg4684   2.099       .  S
O4666     Mg4678   2.293       .  S
Mg4667     O4683   2.264       .  S
H4669      C4674   1.081       .  S
O4670     Mg4678   2.122       .  S
H4671      C4673   1.081       .  S
H4672      C4675   1.081       .  S
C4680      N4701   1.448       .  S
O4681      C4682   1.276       .  A
C4682      C4757   1.482       .  S
N4687      C4691   1.377       .  A
N4687      C4688   1.362       .  A
C4688      C4689   1.374       .  A
C4688      C4863   1.479       .  S
C4689      C4690   1.366       .  A
C4689      H4692   1.082       .  S
C4690      C4691   1.389       .  A
C4690      H4693   1.082       .  S
C4691      C4986   1.507       .  S
N4694      C4698   1.371       .  A
N4694      C4695   1.361       .  A
C4695      C4696   1.371       .  A
C4695      C4794   1.474       .  S
C4696      C4697   1.363       .  A
C4696      H4699   1.083       .  S
C4697      C4698   1.394       .  A
C4697      H4700   1.080       .  S
N4701      C4705   1.372       .  A
N4701      C4702   1.359       .  A
C4702      C4703   1.370       .  A
C4702      C4713   1.461       .  S
C4703      C4704   1.359       .  A
C4703      H4706   1.082       .  S
C4704      C4705   1.393       .  A
C4704      H4707   1.081       .  S
O4708     Mg4710   2.133       .  S
O4708     Mg4716   2.115       .  S
O4708      C4743   1.242       .  S
C4709      H4748   1.081       .  S
C4709      O4722   1.240       .  S
C4709      O4746   1.275       .  A
O4711     Mg4753   2.117       .  S
O4711     Mg4736   2.133       .  S
O4712      C4743   1.279       .  A
O4712     Mg4736   2.340       .  S
C4713      O4715   1.270       .  A
O4714     Mg4716   2.316       .  S
O4715     Mg4747   2.253       .  S
Mg4716     O4722   2.128       .  S
Mg4716     O4730   2.219       .  S
Mg4716     O4718   2.323       .  S
C4717      O4755   1.260       .  A
C4717      O4723   1.272       .  A
C4717      N4756   1.441       .  S
O4718      C4725   1.269       .  A
H4719      C4732   1.082       .  S
C4720      H4745   1.081       .  S
O4721      C4744   1.279       .  A
O4722     Mg4736   2.085       .  S
C4724      O4737   1.265       .  A
C4724      O4729   1.270       .  A
C4725      O4752   1.261       .  A
C4725      N4763   1.440       .  S
Mg4726     O4733   2.134       .  S
Mg4726     O4734   2.084       .  S
Mg4726     O4727   2.279       .  S
Mg4726     O4728   2.338       .  S
Mg4726     O4755   2.261       .  S
O4728      C4732   1.278       .  A
O4729     Mg4736   2.297       .  S
O4731      C4751   1.274       .  A
O4731     Mg4747   2.350       .  S
O4733      C4744   1.242       .  S
Mg4736     O4752   2.264       .  S
O4737     Mg4753   2.219       .  S
H4738      C4743   1.082       .  S
O4739      C4742   1.240   1_554  S
H4740      C4742   1.081       .  S
H4741      C4744   1.082       .  S
O4746     Mg4753   2.320       .  S
C4749      O4754   1.273       .  A
O4750      C4751   1.262       .  A
C4751      N4770   1.445       .  S
N4756      C4760   1.372       .  A
N4756      C4757   1.360       .  A
C4757      C4758   1.375       .  A
C4758      C4759   1.369       .  A
C4758      H4761   1.082       .  S
C4759      C4760   1.391       .  A
C4759      H4762   1.082       .  S
N4763      C4767   1.373       .  A
N4763      C4764   1.360       .  A
C4764      C4765   1.376       .  A
C4765      C4766   1.369       .  A
C4765      H4768   1.083       .  S
C4766      C4767   1.392       .  A
C4766      H4769   1.080       .  S
N4770      C4774   1.376       .  A
N4770      C4771   1.363   1_556  A
C4771      C4772   1.375       .  A
C4772      C4773   1.369   1_554  A
C4772      H4775   1.082       .  S
C4773      C4774   1.390       .  A
C4773      H4776   1.082       .  S
O4777     Mg4785   2.134       .  S
O4777      C4812   1.241       .  S
C4778      H4817   1.081       .  S
C4778      O4791   1.242       .  S
C4778      O4815   1.275       .  A
Mg4779     O4808   2.136       .  S
Mg4779     O4823   2.309       .  S
O4780     Mg4822   2.135       .  S
O4780     Mg4805   2.100       .  S
O4780      C4801   1.241       .  S
O4781      C4812   1.274       .  A
O4781     Mg4805   2.309       .  S
C4782      O4784   1.271       .  A
C4782      N4839   1.444       .  S
O4783      C4811   1.274       .  A
Mg4785     O4791   2.122       .  S
Mg4785     O4787   2.302       .  S
C4786      O4792   1.274       .  A
O4787      C4794   1.274       .  A
H4788      C4801   1.081       .  S
C4789      H4814   1.081       .  S
C4789      O4804   1.274       .  A
O4790      C4813   1.273       .  A
O4791     Mg4805   2.129       .  S
O4792     Mg4822   2.303       .  S
C4793      O4806   1.272       .  A
C4793      O4798   1.274       .  A
C4793      N4832   1.444       .  S
C4794      O4821   1.271       .  A
Mg4795     O4802   2.106   1_565  S
Mg4795     O4796   2.292       .  S
Mg4795     O4797   2.305   1_565  S
Mg4795     O4824   2.267       .  S
O4798     Mg4805   2.290       .  S
O4799      C4818   1.271       .  A
O4800      C4820   1.274       .  A
O4802      C4813   1.240   1_545  S
O4803     Mg4822   2.118       .  S
O4804     Mg4816   2.304       .  S
Mg4805     O4821   2.264       .  S
O4806     Mg4822   2.281       .  S
H4807      C4812   1.081       .  S
O4808     Mg4816   2.116       .  S
O4808      C4811   1.242       .  S
H4809      C4811   1.081       .  S
H4810      C4813   1.081       .  S
O4815     Mg4822   2.308       .  S
C4818      O4823   1.277       .  A
C4818      N4825   1.445       .  S
O4819      C4820   1.275   1_545  A
C4820      C4978   1.479       .  S
N4825      C4829   1.377       .  A
N4825      C4826   1.366       .  A
C4826      C4827   1.370       .  A
C4826      C4924   1.480       .  S
C4827      C4828   1.363       .  A
C4827      H4830   1.083       .  S
C4828      C4829   1.395       .  A
C4828      H4831   1.080       .  S
N4832      C4836   1.372       .  A
N4832      C4833   1.364       .  A
C4833      C4834   1.371       .  A
C4834      C4835   1.363       .  A
C4834      H4837   1.083       .  S
C4835      C4836   1.394       .  A
C4835      H4838   1.081       .  S
N4839      C4843   1.371       .  A
N4839      C4840   1.361       .  A
C4840      C4841   1.373       .  A
C4841      C4842   1.365       .  A
C4841      H4844   1.083   1_565  S
C4842      C4843   1.393       .  A
C4842      H4845   1.081       .  S
O4846     Mg4848   2.106       .  S
O4846     Mg4854   2.135       .  S
O4846      C4881   1.240       .  S
C4847      H4886   1.081       .  S
C4847      O4860   1.242       .  S
C4847      O4884   1.274       .  A
Mg4848     O4877   2.130       .  S
Mg4848     O4892   2.292       .  S
Mg4848     O4888   2.267       .  S
Mg4848     O4859   2.305       .  S
O4849     Mg4891   2.134       .  S
O4849     Mg4874   2.114       .  S
O4849      C4870   1.241       .  S
O4850      C4881   1.273       .  A
O4850     Mg4874   2.301       .  S
C4851      O4853   1.272       .  A
C4851      O4865   1.274       .  A
C4851      N4894   1.444       .  S
O4852      C4880   1.274       .  A
O4852     Mg4854   2.304       .  S
O4853     Mg4885   2.281       .  S
Mg4854     O4860   2.116       .  S
Mg4854     O4868   2.276       .  S
Mg4854     O4856   2.297       .  S
C4855      C4964   1.474       .  S
C4855      O4893   1.271       .  A
C4855      O4861   1.274       .  A
O4856      C4863   1.274       .  A
H4857      C4870   1.081       .  S
C4858      H4883   1.081       .  S
C4858      O4872   1.242       .  S
C4858      O4873   1.275       .  A
O4859      C4882   1.274       .  A
O4860     Mg4874   2.136       .  S
O4861     Mg4891   2.302       .  S
C4862      O4875   1.271       .  A
C4862      O4867   1.277       .  A
C4862      N4901   1.445       .  S
C4863      O4890   1.275       .  A
Mg4864     O4871   2.100       .  S
Mg4864     O4872   2.129       .  S
Mg4864     O4865   2.290       .  S
Mg4864     O4866   2.309       .  S
Mg4864     O4893   2.264       .  S
O4866      C4870   1.274       .  A
O4867     Mg4874   2.308       .  S
O4868      C4887   1.271       .  A
O4869      C4889   1.274       .  A
O4869     Mg4885   2.303       .  S
O4871     Mg4885   2.135       .  S
O4871      C4882   1.241       .  S
O4872     Mg4891   2.122       .  S
O4873     Mg4885   2.308       .  S
Mg4874     O4890   2.280       .  S
O4875     Mg4891   2.265       .  S
H4876      C4881   1.081       .  S
O4877     Mg4885   2.118       .  S
O4877      C4880   1.242       .  S
H4878      C4880   1.081       .  S
H4879      C4882   1.081       .  S
O4884     Mg4891   2.301       .  S
C4887      O4892   1.275       .  A
C4887      N4908   1.444       .  S
O4888      C4889   1.272       .  A
N4894      C4898   1.372       .  A
N4894      C4895   1.364       .  A
C4895      C4896   1.371       .  A
C4895      C4958   1.473       .  S
C4896      C4897   1.363       .  A
C4896      H4899   1.083       .  S
C4897      C4898   1.394       .  A
C4897      H4900   1.081       .  S
N4901      C4905   1.377       .  A
N4901      C4902   1.366       .  A
C4902      C4903   1.370       .  A
C4903      C4904   1.363       .  A
C4903      H4906   1.083       .  S
C4904      C4905   1.395       .  A
C4904      H4907   1.080       .  S
N4908      C4912   1.371       .  A
N4908      C4909   1.361       .  A
C4909      C4910   1.373       .  A
C4910      C4911   1.365       .  A
C4910      H4913   1.083       .  S
C4911      C4912   1.393       .  A
C4911      H4914   1.081       .  S
O4915     Mg4923   2.141       .  S
O4915      C4950   1.240       .  S
C4916      H4955   1.081       .  S
C4916      O4929   1.242       .  S
C4916      O4953   1.275       .  A
Mg4917     O4946   2.122       .  S
Mg4917     O4961   2.273       .  S
Mg4917     O4957   2.256       .  S
O4918     Mg4960   2.139       .  S
O4918     Mg4943   2.117       .  S
O4918      C4939   1.241       .  S
O4919      C4950   1.273       .  A
O4919     Mg4943   2.297       .  S
C4920      O4922   1.267       .  A
C4920      N4977   1.448       .  S
O4921      C4949   1.272       .  A
O4922     Mg4954   2.234       .  S
Mg4923     O4929   2.122       .  S
Mg4923     O4925   2.294       .  S
C4924      O4962   1.272       .  A
C4924      O4930   1.280       .  A
O4925      C4932   1.273       .  A
H4926      C4939   1.081       .  S
C4927      H4952   1.081       .  S
C4927      O4942   1.276       .  A
O4928      C4951   1.275       .  A
O4929     Mg4943   2.132       .  S
O4930     Mg4960   2.339       .  S
C4931      O4944   1.276       .  A
C4931      O4936   1.279       .  A
C4931      N4970   1.448       .  S
C4932      O4959   1.276       .  A
Mg4933     O4940   2.122       .  S
Mg4933     O4941   2.131       .  S
Mg4933     O4934   2.311       .  S
Mg4933     O4935   2.309       .  S
Mg4933     O4962   2.264       .  S
O4935      C4939   1.275       .  A
O4936     Mg4943   2.305       .  S
O4937      C4956   1.272       .  A
O4938      C4958   1.276       .  A
O4938     Mg4954   2.324       .  S
O4940      C4951   1.241       .  S
O4941     Mg4960   2.133       .  S
O4942     Mg4954   2.313       .  S
Mg4943     O4959   2.286       .  S
O4944     Mg4960   2.311       .  S
H4945      C4950   1.081       .  S
O4946     Mg4954   2.099       .  S
O4946      C4949   1.240       .  S
H4947      C4949   1.081       .  S
H4948      C4951   1.081       .  S
O4953     Mg4960   2.306       .  S
C4956      O4961   1.271       .  A
C4956      N4963   1.441       .  S
O4957      C4958   1.268       .  A
N4963      C4967   1.371       .  A
N4963      C4964   1.361       .  A
C4964      C4965   1.371       .  A
C4965      C4966   1.363       .  A
C4965      H4968   1.083       .  S
C4966      C4967   1.394       .  A
C4966      H4969   1.080       .  S
N4970      C4974   1.371       .  A
N4970      C4971   1.359       .  A
C4971      C4972   1.370       .  A
C4972      C4973   1.359       .  A
C4972      H4975   1.082       .  S
C4973      C4974   1.393       .  A
C4973      H4976   1.081       .  S
C4974      C4988   1.493       .  S
N4977      C4981   1.377       .  A
N4977      C4978   1.362       .  A
C4978      C4979   1.374       .  A
C4979      C4980   1.365       .  A
C4979      H4982   1.082       .  S
C4980      C4981   1.389       .  A
C4980      H4983   1.082       .  S
C4984      C4985   1.407       .  A
C4984      C4989   1.390       .  A
C4985      C4986   1.401       .  A
C4985      H4990   1.062       .  S
C4986      C4987   1.418       .  A
C4987      C4988   1.404       .  A
C4987      H4991   1.079       .  S
C4988      C4989   1.414       .  A
C4989      H4992   1.075       .  S
