geometry optimzed in LAMMPS
_audit_creation_date              2020-11-30 
_audit_creation_method            'lammps2cif' 
_symmetry_space_group_name_H-M    'P1' 
_symmetry_Int_Tables_number       1 
_symmetry_cell_setting            triclinic 
loop_ 
_symmetry_equiv_pos_as_xyz 
  x,y,z 
_cell_length_a                    48.57982088 
_cell_length_b                    44.3454967081928 
_cell_length_c                    32.13832158260334 
_cell_angle_alpha                 89.91543570718034 
_cell_angle_beta                  89.47104318886996 
_cell_angle_gamma                 90.30024939541481 
loop_ 
_atom_site_label 
_atom_site_type_symbol 
_atom_site_fract_x 
_atom_site_fract_y 
_atom_site_fract_z 
_atom_site_charge 
In1        In  0.31492874  0.25774562  0.07099103     1.36900
C2          C  0.28304937  0.25692096  0.13921809     0.78100
O3          O  0.29120679  0.28079735  0.02068423    -0.60400
O4          O  0.28263701  0.23162155  0.36657501    -0.51300
C5          C  0.34860607  0.30377193  0.08519687     0.70700
O6          O  0.34879103  0.28006719  0.10700595    -0.46100
C7          C  0.35108924  0.21557430  0.04767731     0.75400
O8          O  0.28555936  0.27958634  0.11596468    -0.58000
O9          O  0.34890209  0.24055702  0.02924487    -0.48100
O10         O  0.29670659  0.23433746  0.12767226    -0.54400
C11         C  0.27958345  0.25474611  0.34431448     0.85600
O12         O  0.32256934  0.30266331  0.39807872    -0.56300
O13         O  0.33494740  0.21261332  0.07840310    -0.59600
In14       In  0.76881474  0.28875712  0.28263558     1.36900
C15         C  0.76901052  0.25286882  0.21609704     0.78100
O16         O  0.76623556  0.24387824  0.31439224    -0.60400
O17         O  0.78090131  0.28698175  0.02065957    -0.51300
C18         C  0.81265840  0.32556605  0.28474938     0.70700
O19         O  0.81440538  0.29745708  0.28971955    -0.46100
C20         C  0.72351549  0.32245301  0.28114908     0.75400
O21         O  0.79023264  0.26630865  0.22877602    -0.58000
O22         O  0.72907051  0.30499311  0.31094087    -0.48100
O23         O  0.74742535  0.25843270  0.23658797    -0.54400
C24         C  0.77241677  0.26019659  0.01696281     0.85600
O25         O  0.78858301  0.33462143  0.27808591    -0.56300
O26         O  0.74102215  0.32226866  0.25190760    -0.59600
In27       In  0.27127336  0.70362122  0.30299872     1.36900
C28         C  0.27379506  0.73674470  0.37218266     0.78100
O29         O  0.27726552  0.74942539  0.27315097    -0.60400
O30         O  0.26400194  0.71315087  0.23532420    -0.51300
C31         C  0.31543661  0.66765069  0.29756663     0.70700
O32         O  0.30816917  0.68501340  0.26862148    -0.46100
C33         C  0.22513996  0.66997423  0.30465697     0.75400
O34         O  0.29470090  0.73115203  0.35012980    -0.58000
O35         O  0.24888671  0.65884249  0.30706114    -0.48100
O36         O  0.25188384  0.72465860  0.35972452    -0.54400
C37         C  0.27044088  0.74065966  0.23747251     0.85600
O38         O  0.29992089  0.66881820  0.32923493    -0.56300
O39         O  0.22512679  0.69825829  0.30083900    -0.59600
In40       In  0.52059372  0.49908268  0.33940218     1.36900
C41         C  0.55934424  0.46014553  0.31766008     0.78100
O42         O  0.55220824  0.53290481  0.32157583    -0.60400
O43         O  0.54254888  0.52813683  0.38629279    -0.51300
C44         C  0.48110940  0.53261849  0.30854516     0.70700
O45         O  0.49396459  0.51389470  0.28588773    -0.46100
C46         C  0.48666472  0.46115736  0.37672002     0.75400
O47         O  0.54574060  0.47455758  0.29062396    -0.58000
O48         O  0.49955162  0.48119385  0.39694499    -0.48100
O49         O  0.55165265  0.46491506  0.35468894    -0.54400
C50         C  0.55715652  0.54090048  0.35844950     0.85600
O51         O  0.48918511  0.53456637  0.34558191    -0.56300
O52         O  0.49163312  0.46050227  0.33809382    -0.59600
In53       In  0.77124904  0.19851359  0.11195821     1.36900
C54         C  0.76955629  0.23251584  0.18021415     0.78100
O55         O  0.76347390  0.21209006  0.04646342    -0.60400
O56         O  0.78108885  0.24472700  0.08676214    -0.51300
C57         C  0.81558607  0.16408072  0.09975701     0.70700
O58         O  0.80412409  0.16706685  0.13487747    -0.46100
C59         C  0.72778508  0.16175084  0.10700403     0.75400
O60         O  0.79169723  0.22508876  0.16243169    -0.58000
O61         O  0.72825787  0.18793314  0.09179313    -0.48100
O62         O  0.74812116  0.22150874  0.16425215    -0.54400
C63         C  0.77239277  0.23855525  0.05097968     0.85600
O64         O  0.80420271  0.17877394  0.07126332    -0.56300
O65         O  0.74910535  0.15498716  0.12704800    -0.59600
In66       In  0.72786439  0.75843445  0.98785667     1.36900
C67         C  0.76216253  0.75639502  0.25801386     0.78100
O68         O  0.74685134  0.78184321  0.04342311    -0.60400
O69         O  0.76056013  0.73795941  0.02805160    -0.51300
C70         C  0.69172977  0.80160158  0.96872630     0.70700
O71         O  0.69165360  0.77602236  0.95162190    -0.46100
C72         C  0.69324596  0.71474727  0.01061006     0.75400
O73         O  0.75793286  0.77929222  0.28028838    -0.58000
O74         O  0.69898700  0.73669115  0.03386799    -0.48100
O75         O  0.75213233  0.73349996  0.93880908    -0.54400
C76         C  0.76219110  0.76001270  0.05253598     0.85600
O77         O  0.71047578  0.80456892  0.99533272    -0.56300
O78         O  0.70486690  0.71546415  0.97536787    -0.59600
In79       In  0.81368590  0.75854173  0.15493494     1.36900
C80         C  0.78029039  0.75981542  0.08895668     0.78100
O81         O  0.78495270  0.73415245  0.19927770    -0.60400
O82         O  0.79190872  0.78084814  0.20873414    -0.51300
C83         C  0.85017921  0.71392404  0.14843180     0.70700
O84         O  0.84969960  0.73581369  0.12335156    -0.46100
C85         C  0.84992139  0.80282156  0.16532568     0.75400
O86         O  0.79425019  0.73713608  0.09877917    -0.58000
O87         O  0.84558960  0.78248132  0.19200623    -0.48100
O88         O  0.78306603  0.78197704  0.11303205    -0.54400
C89         C  0.78011785  0.75711689  0.22113463     0.85600
O90         O  0.83175041  0.71487222  0.17631278    -0.56300
O91         O  0.83520414  0.80075660  0.13326924    -0.59600
In92       In  0.02633055  0.01117785  0.14498673     1.36900
C93         C  0.06574690  0.97278752  0.12627048     0.78100
O94         O  0.05992357  0.04486009  0.14431790    -0.60400
O95         O  0.03977460  0.03528930  0.20244918    -0.51300
C96         C  0.99012828  0.04784758  0.11128342     0.70700
O97         O  0.00623605  0.03221651  0.08887246    -0.46100
C98         C  0.99180297  0.96757057  0.16393373     0.75400
O99         O  0.05559700  0.98994550  0.09873322    -0.58000
O100        O  0.00236606  0.98398049  0.19190458    -0.48100
O101        O  0.05593883  0.97625915  0.16241236    -0.54400
C102        C  0.05838935  0.04979414  0.18299720     0.85600
O103        O  0.99354832  0.04532325  0.14999176    -0.56300
O104        O  0.99815702  0.97477906  0.12708079    -0.59600
In105      In  0.27134884  0.79484553  0.13262774     1.36900
C106        C  0.27032610  0.76052063  0.20097379     0.78100
O107        O  0.25134716  0.76025241  0.09216378    -0.60400
O108        O  0.29422702  0.76856415  0.08368087    -0.51300
C109        C  0.22735805  0.83093753  0.12803357     0.70700
O110        O  0.23941849  0.82573713  0.16187647    -0.46100
C111        C  0.31504172  0.83119654  0.12095717     0.75400
O112        O  0.26367773  0.75101591  0.16565569    -0.58000
O113        O  0.29299360  0.83334643  0.10099258    -0.48100
O114        O  0.27708329  0.78802566  0.20199212    -0.54400
C115        C  0.27308465  0.75426836  0.07220106     0.85600
O116        O  0.23751544  0.81724367  0.09741223    -0.56300
O117        O  0.31483685  0.80993797  0.14710012    -0.59600
In118      In  0.51770288  0.00260044  0.02010027     1.36900
C119        C  0.47717940  0.96779518  0.04878809     0.78100
O120        O  0.49646062  0.04520459  0.03649175    -0.60400
O121        O  0.49323072  0.02981677  0.97381356    -0.51300
C122        C  0.56238530  0.03016091  0.04777748     0.70700
O123        O  0.54462810  0.01857320  0.07226579    -0.46100
C124        C  0.54600336  0.95855325  0.98568626     0.75400
O125        O  0.49464424  0.97973552  0.07292217    -0.58000
O126        O  0.53615654  0.97968749  0.96371911    -0.48100
O127        O  0.48051047  0.97446884  0.01090269    -0.54400
C128        C  0.48634697  0.04917122  0.00090946     0.85600
O129        O  0.55688619  0.02809538  0.00951073    -0.56300
O130        O  0.54084333  0.96030290  0.02414750    -0.59600
In131      In  0.23036720  0.25751762  0.24087409     1.36900
C132        C  0.26523163  0.25703427  0.17625084     0.78100
O133        O  0.25900600  0.27903235  0.28629296    -0.60400
O134        O  0.24995808  0.23241689  0.29375730    -0.55700
C135        C  0.19738528  0.30507425  0.23642341     0.70700
O136        O  0.21203424  0.29983507  0.26779682    -0.46100
C137        C  0.19163465  0.21511373  0.24149827     0.75400
O138        O  0.25182964  0.27996812  0.18697643    -0.58000
O139        O  0.19558779  0.23227779  0.27209142    -0.48100
O140        O  0.26164882  0.23436602  0.19937896    -0.54400
C141        C  0.26242007  0.25533075  0.30722218     0.85600
O142        O  0.19973126  0.28589672  0.20775766    -0.56300
O143        O  0.20801791  0.21919858  0.21138409    -0.59600
In144      In  0.01488855  0.50739572  0.24528646     1.36900
C145        C  0.97546500  0.47399367  0.88965661     0.78100
O146        O  0.98492734  0.54456548  0.24960205    -0.60400
O147        O  0.99953813  0.53239333  0.18918000    -0.51300
C148        C  0.05612974  0.54293714  0.89995697     0.70700
O149        O  0.03772247  0.53086123  0.92292089    -0.46100
C150        C  0.05225022  0.46608021  0.22901812     0.75400
O151        O  0.98925253  0.48861529  0.91626065    -0.58000
O152        O  0.03978138  0.47969710  0.20006212    -0.48100
O153        O  0.98176453  0.47550760  0.22827492    -0.54400
C154        C  0.98456259  0.54982959  0.21092665     0.85600
O155        O  0.04842729  0.54008887  0.23490588    -0.56300
O156        O  0.04477678  0.47287111  0.26554513    -0.59600
C157        C  0.09015590  0.39272701  0.20936362    -0.05000
C158        C  0.11727082  0.40109417  0.22002558     0.09200
C159        C  0.12339708  0.43148216  0.22913045    -0.02400
C160        C  0.10219496  0.45308323  0.22998578    -0.00600
C161        C  0.07478989  0.44438018  0.22161581    -0.04200
C162        C  0.06887938  0.41429554  0.21052236     0.02800
C163        C  0.13896004  0.37751207  0.22454894     0.09600
C164        C  0.15147497  0.44030925  0.23835534     0.35500
C165        C  0.04415666  0.40644405  0.81133183     0.38900
C166        C  0.15489936  0.36850324  0.18994437    -0.04600
C167        C  0.17475071  0.34563672  0.19422581     0.02500
C168        C  0.17857894  0.33133458  0.23318381    -0.04200
C169        C  0.16331890  0.34130094  0.26824058    -0.00400
C170        C  0.14339373  0.36408823  0.26376161    -0.03000
C171        C  0.15057810  0.38251353  0.14976014     0.36300
C172        C  0.16737082  0.32760707  0.30876282     0.39900
C173        C  0.19179213  0.33749131  0.15868663     0.39000
C174        C  0.12682095  0.37321194  0.29931635     0.35900
C175        C  0.08618855  0.36113778  0.81550440     0.36600
C176        C  0.10846486  0.48421355  0.24022461     0.39900
N177        N  0.20553153  0.33094869  0.13052348    -0.38200
N178        N  0.14712550  0.39355642  0.11759187    -0.39800
N179        N  0.17068535  0.31683057  0.34114791    -0.37500
N180        N  0.11348887  0.38038992  0.32760883    -0.39900
N181        N  0.17391780  0.44725719  0.24559830    -0.39700
N182        N  0.11346977  0.50905379  0.24831794    -0.37300
N183        N  0.02300130  0.40061125  0.79709278    -0.38400
N184        N  0.08269163  0.33724847  0.80200905    -0.40000
C185        C  0.38892354  0.86151578  0.11300202    -0.05000
C186        C  0.38464340  0.89076133  0.09715716     0.09200
C187        C  0.35762378  0.90077426  0.08991845    -0.02400
C188        C  0.33493641  0.88153142  0.09800928    -0.00600
C189        C  0.33906839  0.85194658  0.11378251    -0.04200
C190        C  0.36633554  0.84222753  0.12152391     0.02800
C191        C  0.40880357  0.91031920  0.08562344     0.09600
C192        C  0.35325090  0.93081351  0.07334138     0.35500
C193        C  0.37153929  0.81197734  0.13666243     0.38900
C194        C  0.42311660  0.90504885  0.04802274    -0.04600
C195        C  0.44563613  0.92348217  0.03643278     0.02500
C196        C  0.45446944  0.94721929  0.06283024    -0.04200
C197        C  0.44075634  0.95160228  0.10144032    -0.00400
C198        C  0.41765249  0.93360878  0.11231840    -0.03000
C199        C  0.41468737  0.88038634  0.02125715     0.36300
C200        C  0.45001171  0.97480080  0.12990973     0.39900
C201        C  0.46010518  0.91717551  0.99770050     0.39000
C202        C  0.40275437  0.93919231  0.15082674     0.35900
C203        C  0.41682340  0.85102730  0.11935585     0.36600
C204        C  0.30736179  0.89254934  0.09020199     0.39900
N205        N  0.47158536  0.91203941  0.96679871    -0.38200
N206        N  0.40810641  0.86053761  0.00015438    -0.39800
N207        N  0.45750312  0.99307046  0.15293619    -0.37500
N208        N  0.39071389  0.94379253  0.18140001    -0.39900
N209        N  0.34979995  0.95479643  0.06018988    -0.39700
N210        N  0.28536050  0.90119496  0.08378462    -0.37300
N211        N  0.37583502  0.78787444  0.14875609    -0.38400
N212        N  0.43915234  0.84277405  0.12392316    -0.40000
C213        C  0.13453210  0.16500026  0.20050846    -0.05000
C214        C  0.13002433  0.14545821  0.23450643     0.09200
C215        C  0.14353378  0.15060585  0.27242121    -0.02400
C216        C  0.16316953  0.17403553  0.27543060    -0.00600
C217        C  0.16930112  0.19225137  0.24027119    -0.04200
C218        C  0.15423810  0.18820687  0.20319883     0.02800
C219        C  0.11236099  0.11830608  0.22874255     0.09600
C220        C  0.13730492  0.13154596  0.30802692     0.35500
C221        C  0.15858736  0.20817369  0.16786875     0.38900
C222        C  0.12334685  0.09302241  0.20800308    -0.04600
C223        C  0.10578807  0.06961966  0.19507469     0.02500
C224        C  0.07721898  0.07132590  0.20330010    -0.04200
C225        C  0.06665767  0.09531144  0.22740469    -0.00400
C226        C  0.08421770  0.11902522  0.23963218    -0.03000
C227        C  0.15259243  0.09179095  0.19850577     0.36300
C228        C  0.03753546  0.09658455  0.23745372     0.39900
C229        C  0.11714489  0.04387834  0.17305413     0.39000
C230        C  0.07318142  0.14496577  0.26140854     0.35900
C231        C  0.11876545  0.16108768  0.16271602     0.36600
C232        C  0.17780097  0.17839707  0.31410141     0.39900
N233        N  0.12629697  0.02339127  0.15558780    -0.38200
N234        N  0.17591689  0.09091653  0.19094287    -0.39800
N235        N  0.01429959  0.09760324  0.24560636    -0.37500
N236        N  0.06449011  0.16576819  0.27867922    -0.39900
N237        N  0.13200549  0.11638444  0.33635762    -0.39700
N238        N  0.18941902  0.18183764  0.34503717    -0.37300
N239        N  0.16200704  0.22403772  0.13964141    -0.38400
N240        N  0.10597363  0.15796062  0.13280611    -0.40000
C241        C  0.11043589  0.90343054  0.13930830    -0.05000
C242        C  0.13309341  0.91053408  0.11343145     0.09200
C243        C  0.13244511  0.93657477  0.08816697    -0.02400
C244        C  0.10971629  0.95631465  0.09033406    -0.00600
C245        C  0.08765012  0.95013219  0.11818441    -0.04200
C246        C  0.08775039  0.92296896  0.14157618     0.02800
C247        C  0.15816002  0.89114005  0.11487004     0.09600
C248        C  0.15558667  0.94345050  0.06091532     0.35500
C249        C  0.06457062  0.91489152  0.16828574     0.38900
C250        C  0.15939440  0.86432924  0.09152621    -0.04600
C251        C  0.18176920  0.84447944  0.09621727     0.02500
C252        C  0.20340986  0.85161008  0.12392876    -0.04200
C253        C  0.20243726  0.87906066  0.14634270    -0.00400
C254        C  0.17968132  0.89847626  0.14226723    -0.03000
C255        C  0.13730135  0.85703582  0.06311184     0.36300
C256        C  0.22532398  0.88816201  0.17222606     0.39900
C257        C  0.18193451  0.81628647  0.07337955     0.39000
C258        C  0.17804957  0.92590460  0.16670643     0.35900
C259        C  0.11092061  0.87634674  0.16471836     0.36600
C260        C  0.10984252  0.98362623  0.06544742     0.39900
N261        N  0.18203554  0.79378658  0.05514404    -0.38200
N262        N  0.12925519  0.86941519  0.38828348    -0.39800
N263        N  0.24360644  0.89573006  0.19260605    -0.37500
N264        N  0.17642457  0.94779914  0.18613257    -0.39900
N265        N  0.17409194  0.94897207  0.03922261    -0.39700
N266        N  0.10997021  0.00540931  0.04554485    -0.37300
N267        N  0.04621310  0.90839081  0.18976708    -0.38400
N268        N  0.11138882  0.85476669  0.18499058    -0.40000
C269        C  0.91592524  0.84293213  0.19728042    -0.05000
C270        C  0.91181386  0.87185597  0.18050473     0.09200
C271        C  0.88715240  0.87857973  0.15974867    -0.02400
C272        C  0.86658372  0.85630662  0.15559395    -0.00600
C273        C  0.87097446  0.82684175  0.17112907    -0.04200
C274        C  0.89584417  0.82028339  0.19201198     0.02800
C275        C  0.93459983  0.89441799  0.18060234     0.09600
C276        C  0.88337697  0.90827440  0.14167080     0.35500
C277        C  0.90165010  0.78989521  0.20613068     0.38900
C278        C  0.95523176  0.89278625  0.14967417    -0.04600
C279        C  0.97498169  0.91588515  0.14603961     0.02500
C280        C  0.97366204  0.94131686  0.17263750    -0.04200
C281        C  0.95413192  0.94183164  0.20553750    -0.00400
C282        C  0.93477546  0.91817641  0.20970039    -0.03000
C283        C  0.95572737  0.86753839  0.12094571     0.36300
C284        C  0.95299202  0.96719272  0.23395903     0.39900
C285        C  0.99681475  0.91314889  0.11511366     0.39000
C286        C  0.91484782  0.91832768  0.24354039     0.35900
C287        C  0.94124596  0.83638810  0.21906418     0.36600
C288        C  0.84079137  0.86405732  0.13591943     0.39900
N289        N  0.01428347  0.91097226  0.09054810    -0.38200
N290        N  0.95607629  0.84735379  0.09817507    -0.39800
N291        N  0.95204945  0.98740002  0.25665267    -0.37500
N292        N  0.89908594  0.91834926  0.27078453    -0.39900
N293        N  0.88058870  0.93196956  0.12718693    -0.39700
N294        N  0.82022528  0.87035383  0.12032905    -0.37300
N295        N  0.90641744  0.76563648  0.21719817    -0.38400
N296        N  0.96146160  0.83132288  0.23643916    -0.40000
C297        C  0.88320608  0.63670589  0.16065442    -0.05000
C298        C  0.91104960  0.64325034  0.15168227     0.09200
C299        C  0.91855910  0.67219909  0.13716763    -0.02400
C300        C  0.89859024  0.69519292  0.13452439    -0.00600
C301        C  0.87083549  0.68916635  0.14604762    -0.04200
C302        C  0.86315127  0.65943807  0.15763927     0.02800
C303        C  0.93265502  0.62098728  0.16370162     0.09600
C304        C  0.94712923  0.67847986  0.12671984     0.35500
C305        C  0.83459450  0.65208306  0.16677452     0.38900
C306        C  0.93880097  0.59595961  0.13829609    -0.04600
C307        C  0.95640060  0.57299857  0.15290839     0.02500
C308        C  0.96789090  0.57495936  0.19324734    -0.04200
C309        C  0.96275111  0.60107093  0.21756546    -0.00400
C310        C  0.94528795  0.62386364  0.20277558    -0.03000
C311        C  0.92669275  0.59375724  0.09734506     0.36300
C312        C  0.97553732  0.60497954  0.25787008     0.39900
C313        C  0.96171086  0.54695805  0.12685615     0.39000
C314        C  0.93989178  0.65026534  0.22820837     0.35900
C315        C  0.87542068  0.60675744  0.17492633     0.36600
C316        C  0.90715646  0.72540754  0.12255438     0.39900
N317        N  0.96598990  0.52621911  0.10599134    -0.38200
N318        N  0.91708358  0.59205144  0.06459435    -0.39800
N319        N  0.98557557  0.60819875  0.29010580    -0.37500
N320        N  0.93569511  0.67140901  0.24831611    -0.39900
N321        N  0.96660087  0.68801487  0.74644451    -0.39700
N322        N  0.91410950  0.74948415  0.11313000    -0.37300
N323        N  0.81181703  0.64620484  0.17414182    -0.38400
N324        N  0.86935753  0.58285981  0.18635385    -0.40000
C325        C  0.62786403  0.84237296  0.92727272    -0.05000
C326        C  0.62715242  0.86779746  0.95342178     0.09200
C327        C  0.64875565  0.87296323  0.98145128    -0.02400
C328        C  0.67107098  0.85291893  0.98343244    -0.00600
C329        C  0.67090837  0.82576021  0.95998198    -0.04200
C330        C  0.64960789  0.82138175  0.93035760     0.02800
C331        C  0.60320555  0.88887297  0.95335188     0.09600
C332        C  0.64722376  0.89818340  0.01014001     0.35500
C333        C  0.64990276  0.79571757  0.90243605     0.38900
C334        C  0.57983173  0.88203200  0.97791902    -0.04600
C335        C  0.55989850  0.90429846  0.98574291     0.02500
C336        C  0.56326063  0.93370066  0.96909450    -0.04200
C337        C  0.58574104  0.93991296  0.94209159    -0.00400
C338        C  0.60566137  0.91747449  0.93424940    -0.03000
C339        C  0.57736335  0.85270589  0.99777613     0.36300
C340        C  0.59016339  0.97021985  0.92618021     0.39900
C341        C  0.53669441  0.89729390  0.01291939     0.39000
C342        C  0.62979602  0.92437258  0.90905053     0.35900
C343        C  0.60554844  0.83734022  0.89835216     0.36600
C344        C  0.69422878  0.86098252  0.00944880     0.39900
N345        N  0.51842372  0.89176339  0.03508353    -0.38200
N346        N  0.57546338  0.82939467  0.01379655    -0.39800
N347        N  0.59400407  0.99451516  0.91419676    -0.37500
N348        N  0.64922914  0.92977385  0.88922601    -0.39900
N349        N  0.64578652  0.91797651  0.03348020    -0.39700
N350        N  0.71278630  0.86770168  0.02983449    -0.37300
N351        N  0.64677759  0.77392014  0.22852427    -0.38400
N352        N  0.58752026  0.83335624  0.87569402    -0.40000
C353        C  0.67361726  0.10044155  0.12666058    -0.05000
C354        C  0.65971749  0.09998674  0.08830271     0.09200
C355        C  0.66831368  0.11953689  0.05599284    -0.02400
C356        C  0.69054586  0.13960910  0.06200854    -0.00600
C357        C  0.70433133  0.14046402  0.10070630    -0.04200
C358        C  0.69578288  0.12063585  0.13292078     0.02800
C359        C  0.63514111  0.07995768  0.08215482     0.09600
C360        C  0.65394456  0.11920765  0.01657347     0.35500
C361        C  0.70900881  0.12182217  0.17318255     0.38900
C362        C  0.60895142  0.08931492  0.09626399    -0.04600
C363        C  0.58526397  0.07221161  0.08667366     0.02500
C364        C  0.58758326  0.04582960  0.06242152    -0.04200
C365        C  0.61395108  0.03569817  0.04995594    -0.00400
C366        C  0.63767555  0.05268781  0.05989567    -0.03000
C367        C  0.60634817  0.11715399  0.11953487     0.36300
C368        C  0.61684053  0.00740268  0.02784490     0.39900
C369        C  0.55835923  0.08245912  0.10022603     0.39000
C370        C  0.66470017  0.04236121  0.04692058     0.35900
C371        C  0.66484613  0.08033623  0.15988494     0.36600
C372        C  0.69951158  0.15880704  0.02778284     0.39900
N373        N  0.53682094  0.09053197  0.11099559    -0.38200
N374        N  0.60441451  0.13939061  0.13809102    -0.39800
N375        N  0.61958597  0.98468877  0.01069147    -0.37500
N376        N  0.68629843  0.03412807  0.03665323    -0.39900
N377        N  0.64242949  0.11891264  0.98521722    -0.39700
N378        N  0.70655906  0.17407514  0.00040408    -0.37300
N379        N  0.71959188  0.12296550  0.20525799    -0.38400
N380        N  0.65786926  0.06436444  0.18651371    -0.40000
C381        C  0.88402640  0.13572385  0.05532192    -0.05000
C382        C  0.89004089  0.11223024  0.08321132     0.09200
C383        C  0.87056219  0.10379215  0.11391156    -0.02400
C384        C  0.84578473  0.11994068  0.11835184    -0.00600
C385        C  0.84054692  0.14519426  0.09255765    -0.04200
C386        C  0.85957429  0.15244965  0.06016243     0.02800
C387        C  0.91786558  0.09802468  0.08298000     0.09600
C388        C  0.87627288  0.07858864  0.14132422     0.35500
C389        C  0.85483605  0.17784800  0.03265202     0.38900
C390        C  0.93929821  0.11157392  0.10573533    -0.04600
C391        C  0.96438553  0.09634149  0.11092772     0.02500
C392        C  0.96778755  0.06698238  0.09480656    -0.04200
C393        C  0.94716668  0.05443427  0.06924181    -0.00400
C394        C  0.92228477  0.07011545  0.06306526    -0.03000
C395        C  0.93494950  0.14051414  0.12570596     0.36300
C396        C  0.95064178  0.02455774  0.05174658     0.39900
C397        C  0.98673280  0.11075080  0.13311264     0.39000
C398        C  0.90071911  0.05707385  0.03783093     0.35900
C399        C  0.90323864  0.14275601  0.02182673     0.36600
C400        C  0.82556754  0.10998519  0.14900716     0.39900
N401        N  0.00474284  0.12231539  0.15035445    -0.38200
N402        N  0.93132367  0.16349342  0.14180675    -0.39800
N403        N  0.95333770  0.00069316  0.03783812    -0.37500
N404        N  0.88344295  0.04678441  0.01763368    -0.39900
N405        N  0.88085164  0.05842308  0.16303326    -0.39700
N406        N  0.80944942  0.10188827  0.17337107    -0.37300
N407        N  0.85112999  0.19809772  0.01067895    -0.38400
N408        N  0.93572205  0.15691267  0.37234108    -0.40000
C409        C  0.63926701  0.64883360  0.32208018    -0.05000
C410        C  0.63788422  0.63580849  0.36218446     0.09200
C411        C  0.65989408  0.65232277  0.07553877    -0.02400
C412        C  0.67733964  0.67642205  0.06345012    -0.00600
C413        C  0.67450644  0.68994132  0.02379393    -0.04200
C414        C  0.65659615  0.67382186  0.31429529     0.02800
C415        C  0.61908347  0.60954030  0.36977436     0.09600
C416        C  0.66345745  0.63778431  0.11554655     0.35500
C417        C  0.65639049  0.68798755  0.27355655     0.38900
C418        C  0.62597038  0.58111028  0.35330300    -0.04600
C419        C  0.60599905  0.55805465  0.35176205     0.02500
C420        C  0.57912781  0.56316131  0.36737362    -0.04200
C421        C  0.57302583  0.59066256  0.38745666    -0.00400
C422        C  0.59308320  0.61381690  0.38880511    -0.03000
C423        C  0.65338997  0.57606127  0.33650366     0.36300
C424        C  0.55168058  0.59946335  0.10505678     0.39900
C425        C  0.61299614  0.52931089  0.33306437     0.39000
C426        C  0.59246908  0.64647175  0.10437249     0.35900
C427        C  0.62318025  0.63602045  0.28851145     0.36600
C428        C  0.69912111  0.68625539  0.09099681     0.39900
N429        N  0.61880333  0.50653585  0.31788959    -0.38200
N430        N  0.67527241  0.57213739  0.32311289    -0.39800
N431        N  0.53064688  0.60326871  0.12136693    -0.37500
N432        N  0.58856369  0.66877944  0.12207556    -0.39900
N433        N  0.66640224  0.62619681  0.14747949    -0.39700
N434        N  0.71660931  0.69412443  0.11272775    -0.37300
N435        N  0.65595266  0.69914282  0.24098150    -0.38400
N436        N  0.61064153  0.62538556  0.26177032    -0.40000
C437        C  0.43741516  0.60092531  0.28773264    -0.05000
C438        C  0.41077815  0.58801836  0.28796034     0.09200
C439        C  0.40770474  0.55634337  0.28941589    -0.02400
C440        C  0.43109993  0.53777351  0.29291407    -0.00600
C441        C  0.45763565  0.55083748  0.29434531    -0.04200
C442        C  0.46078294  0.58235296  0.29067713     0.02800
C443        C  0.38601640  0.60800368  0.29014585     0.09600
C444        C  0.38038227  0.54302043  0.28970439     0.35500
C445        C  0.48812191  0.59566767  0.29183463     0.38900
C446        C  0.37219096  0.61641554  0.25366533    -0.04600
C447        C  0.34975044  0.63657120  0.25567923     0.02500
C448        C  0.34010273  0.64748028  0.29473639    -0.04200
C449        C  0.35424204  0.63884931  0.33132409    -0.00400
C450        C  0.37714854  0.61944409  0.32885492    -0.03000
C451        C  0.38117893  0.60411070  0.21407710     0.36300
C452        C  0.34625036  0.65092520  0.37155847     0.39900
C453        C  0.33694929  0.64601758  0.21724156     0.39000
C454        C  0.39204616  0.61149363  0.36620118     0.35900
C455        C  0.44063438  0.63344632  0.28695567     0.36600
C456        C  0.42777029  0.50545782  0.29840233     0.39900
N457        N  0.32712452  0.65376709  0.18637037    -0.38200
N458        N  0.38845369  0.59388333  0.18276747    -0.39800
N459        N  0.33999292  0.66058629  0.40371975    -0.37500
N460        N  0.40420605  0.60515976  0.39571608    -0.39900
N461        N  0.35858399  0.53237604  0.29003431    -0.39700
N462        N  0.42514610  0.47972354  0.30316601    -0.37300
N463        N  0.51000364  0.60606699  0.29283290    -0.38400
N464        N  0.44534678  0.66232782  0.99828954    -0.40000
C465        C  0.15068364  0.64254420  0.96457200    -0.05000
C466        C  0.14919769  0.61824859  0.30538773     0.09200
C467        C  0.17349735  0.60558571  0.28878986    -0.02400
C468        C  0.19831930  0.62232846  0.28842081    -0.00600
C469        C  0.19930122  0.65151101  0.30632770    -0.04200
C470        C  0.17516423  0.65906467  0.97105727     0.02800
C471        C  0.12222100  0.60216814  0.30040949     0.09600
C472        C  0.17289291  0.57518141  0.27216494     0.35500
C473        C  0.17356835  0.68868059  0.99001478     0.38900
C474        C  0.11295113  0.60211143  0.89909728    -0.04600
C475        C  0.08922589  0.58573175  0.88813371     0.02500
C476        C  0.07831477  0.56332307  0.91528318    -0.04200
C477        C  0.08974766  0.56242829  0.32155196    -0.00400
C478        C  0.11386131  0.57957524  0.32884231    -0.03000
C479        C  0.12447713  0.62415045  0.87031132     0.36300
C480        C  0.08261866  0.53790143  0.34958858     0.39900
C481        C  0.07598313  0.59225760  0.84880197     0.39000
C482        C  0.13077825  0.57325095  0.36469005     0.35900
C483        C  0.12421443  0.65560400  0.97519110     0.36600
C484        C  0.22246659  0.60973776  0.26818020     0.39900
N485        N  0.06532482  0.59717253  0.81744160    -0.38200
N486        N  0.13345792  0.64166297  0.84709936    -0.39800
N487        N  0.07715488  0.51832294  0.37208153    -0.37500
N488        N  0.14441847  0.56822838  0.39320289    -0.39900
N489        N  0.17248520  0.55077571  0.25947441    -0.39700
N490        N  0.24162163  0.59957380  0.25189180    -0.37300
N491        N  0.17222903  0.71223271  0.00535769    -0.38400
N492        N  0.10306290  0.66588631  0.98372328    -0.40000
C493        C  0.62521640  0.41430533  0.33069079    -0.05000
C494        C  0.62816732  0.40074427  0.29138104     0.09200
C495        C  0.60919545  0.40733776  0.25974119    -0.02400
C496        C  0.58667797  0.42668342  0.26784466    -0.00600
C497        C  0.58316334  0.43986478  0.30780270    -0.04200
C498        C  0.60311962  0.43389542  0.33889183     0.02800
C499        C  0.65171447  0.37972662  0.28387561     0.09600
C500        C  0.61306442  0.39432800  0.21873273     0.35500
C501        C  0.60198297  0.44876078  0.37911515     0.38900
C502        C  0.64962531  0.34936807  0.29667331    -0.04600
C503        C  0.67301403  0.33061905  0.29574958     0.02500
C504        C  0.69857465  0.34189829  0.28078228    -0.04200
C505        C  0.70026394  0.37204393  0.26621616    -0.00400
C506        C  0.67698982  0.39095092  0.26831680    -0.03000
C507        C  0.62334013  0.33757205  0.31122784     0.36300
C508        C  0.72619816  0.38421298  0.25076855     0.39900
C509        C  0.67057412  0.29960730  0.30977519     0.39000
C510        C  0.67916161  0.42232162  0.25581606     0.35900
C511        C  0.64539790  0.40838377  0.36274012     0.36600
C512        C  0.56718541  0.43253939  0.23491046     0.39900
N513        N  0.66867471  0.27487335  0.32108534    -0.38200
N514        N  0.60230582  0.32818259  0.32260140    -0.39800
N515        N  0.74682720  0.39396832  0.23830244    -0.37500
N516        N  0.68075180  0.44741309  0.24603454    -0.39900
N517        N  0.61626664  0.38410068  0.18593727    -0.39700
N518        N  0.55182094  0.43711696  0.20835355    -0.37300
N519        N  0.60124863  0.46068399  0.41112694    -0.38400
N520        N  0.67700784  0.42475050  0.07049629    -0.40000
C521        C  0.88470292  0.35869980  0.26822786    -0.05000
C522        C  0.88168206  0.38769376  0.28572353     0.09200
C523        C  0.85634477  0.39581792  0.30428099    -0.02400
C524        C  0.83410111  0.37521136  0.30506083    -0.00600
C525        C  0.83679757  0.34642654  0.28647800    -0.04200
C526        C  0.86240766  0.33810983  0.26863869     0.02800
C527        C  0.90470126  0.41030864  0.28255829     0.09600
C528        C  0.85301734  0.42570643  0.32184145     0.35500
C529        C  0.86561687  0.30886957  0.24906690     0.38900
C530        C  0.90343428  0.43362657  0.25273323    -0.04600
C531        C  0.92508015  0.45478126  0.24906711     0.02500
C532        C  0.95082121  0.45551666  0.90058198    -0.04200
C533        C  0.94946544  0.43951491  0.93871547    -0.00400
C534        C  0.92645784  0.42115744  0.94806384    -0.03000
C535        C  0.88013940  0.43525596  0.22487741     0.36300
C536        C  0.97223637  0.44062363  0.96758873     0.39900
C537        C  0.92260470  0.47981602  0.22019095     0.39000
C538        C  0.92545564  0.40404095  0.98659476     0.35900
C539        C  0.91053807  0.35043571  0.24845234     0.36600
C540        C  0.80869272  0.38344206  0.32616693     0.39900
N541        N  0.92054408  0.49992094  0.19743800    -0.38200
N542        N  0.86159235  0.43634911  0.20260216    -0.39800
N543        N  0.99040828  0.44141195  0.99060619    -0.37500
N544        N  0.92472126  0.39010306  0.01706046    -0.39900
N545        N  0.85029868  0.44967517  0.33545003    -0.39700
N546        N  0.78846868  0.38990136  0.34318293    -0.37300
N547        N  0.86818317  0.28553140  0.23343569    -0.38400
N548        N  0.93236593  0.34556351  0.89753483    -0.40000
C549        C  0.44885214  0.38849238  0.40155849    -0.05000
C550        C  0.42444860  0.39949152  0.42008801     0.09200
C551        C  0.42184012  0.43054535  0.42865115    -0.02400
C552        C  0.44294589  0.45079924  0.41647092    -0.00600
C553        C  0.46675138  0.43991374  0.39598305    -0.04200
C554        C  0.46993314  0.40864251  0.38949289     0.02800
C555        C  0.40043227  0.37861621  0.42512203     0.09600
C556        C  0.39104408  0.44085333  0.10435822     0.35500
C557        C  0.49465978  0.39722710  0.36943567     0.38900
C558        C  0.39480051  0.36117934  0.13925876    -0.04600
C559        C  0.37582640  0.33744283  0.13305446     0.02500
C560        C  0.36748938  0.32971983  0.09226916    -0.04200
C561        C  0.36172478  0.35305344  0.39220620    -0.00400
C562        C  0.38069491  0.37714896  0.39339340    -0.03000
C563        C  0.40383725  0.36871857  0.18086178     0.36300
C564        C  0.34318225  0.35109873  0.35712810     0.39900
C565        C  0.36435476  0.32165647  0.16884386     0.39000
C566        C  0.38041754  0.40022469  0.36127207     0.35900
C567        C  0.45163559  0.35651365  0.39298287     0.36600
C568        C  0.43915215  0.48297785  0.42194999     0.39900
N569        N  0.35510558  0.30913262  0.19738282    -0.38200
N570        N  0.41121708  0.37477004  0.21397170    -0.39800
N571        N  0.32851063  0.34976251  0.32900268    -0.37500
N572        N  0.38005454  0.41887791  0.33606089    -0.39900
N573        N  0.36813730  0.44778251  0.10292806    -0.39700
N574        N  0.42787012  0.50991408  0.08631440    -0.37300
N575        N  0.51433601  0.38810067  0.35335459    -0.38400
N576        N  0.45374785  0.33100373  0.38616691    -0.40000
C577        C  0.39933285  0.14767665  0.05102286    -0.05000
C578        C  0.40845630  0.14594055  0.00930513     0.09200
C579        C  0.39832000  0.16649395  0.97978637    -0.02400
C580        C  0.37942926  0.18906061  0.99203875    -0.00600
C581        C  0.37087742  0.19156967  0.03431166    -0.04200
C582        C  0.38098488  0.17051903  0.06365739     0.02800
C583        C  0.42879510  0.12212596  0.99719854     0.09600
C584        C  0.40691133  0.16390924  0.93660122     0.35500
C585        C  0.37306482  0.17240275  0.10723048     0.38900
C586        C  0.41970163  0.09241450  0.98937878    -0.04600
C587        C  0.43886338  0.06860075  0.98694685     0.02500
C588        C  0.46718284  0.07442321  0.99303744    -0.04200
C589        C  0.47636439  0.10441612  0.99834325    -0.00400
C590        C  0.45726920  0.12828369  0.99940262    -0.03000
C591        C  0.39043955  0.08624473  0.98625446     0.36300
C592        C  0.50539704  0.11050218  0.00469800     0.39900
C593        C  0.42910719  0.03787448  0.98194224     0.39000
C594        C  0.46678981  0.15909636  0.00424471     0.35900
C595        C  0.40860097  0.12548353  0.08097753     0.36600
C596        C  0.36797968  0.20869525  0.96054763     0.39900
N597        N  0.42103462  0.01342633  0.97826711    -0.38200
N598        N  0.36705294  0.08151799  0.98399282    -0.39800
N599        N  0.52855007  0.11515443  0.01011124    -0.37500
N600        N  0.47440566  0.18373722  0.00767093    -0.39900
N601        N  0.41370075  0.16175916  0.90211569    -0.39700
N602        N  0.35872874  0.22421633  0.93533217    -0.37300
N603        N  0.36675009  0.17379732  0.14199420    -0.38400
N604        N  0.41577684  0.10756826  0.10469590    -0.40000
In605      In  0.31233047  0.25453330  0.41028212     1.36900
C606        C  0.27906104  0.25222383  0.47727277     0.78100
O607        O  0.29259130  0.27762207  0.35635013    -0.60400
O608        O  0.28983207  0.22474438  0.68912918    -0.51300
C609        C  0.34381741  0.30323152  0.42023912     0.70700
O610        O  0.34878758  0.27846997  0.43813281    -0.46100
C611        C  0.35087733  0.21376428  0.39281760     0.75400
O612        O  0.28964900  0.27620481  0.46369755    -0.58000
O613        O  0.34320752  0.23341793  0.36716703    -0.48100
O614        O  0.28529674  0.22909844  0.45665110    -0.54400
C615        C  0.27611126  0.24771239  0.67948952     0.85600
O616        O  0.33105736  0.28441587  0.70476214    -0.56300
O617        O  0.33882617  0.21500042  0.42771690    -0.59600
In618      In  0.77096574  0.29238709  0.61877698     1.36900
C619        C  0.77300286  0.25563541  0.55422855     0.78100
O620        O  0.76672050  0.24812063  0.65238237    -0.60400
O621        O  0.77322242  0.28253239  0.35176079    -0.51300
C622        C  0.81432418  0.32936677  0.61981063     0.70700
O623        O  0.81656777  0.30120834  0.61560100    -0.46100
C624        C  0.72489522  0.32427761  0.60898604     0.75400
O625        O  0.79109859  0.27560411  0.56038748    -0.58000
O626        O  0.73196666  0.31332937  0.64350541    -0.48100
O627        O  0.75371805  0.25476282  0.58070167    -0.54400
C628        C  0.77043326  0.25429972  0.35012660     0.85600
O629        O  0.78985250  0.33841047  0.62313554    -0.56300
O630        O  0.74142753  0.31876252  0.57962457    -0.59600
In631      In  0.26935132  0.69921095  0.63880701     1.36900
C632        C  0.27314331  0.73559564  0.70441390     0.78100
O633        O  0.28719619  0.73971059  0.60529519    -0.60400
O634        O  0.25517092  0.71514564  0.57615751    -0.51300
C635        C  0.30746979  0.65783834  0.62052550     0.70700
O636        O  0.29188175  0.66942326  0.59385624    -0.46100
C637        C  0.22371052  0.66703985  0.65220659     0.75400
O638        O  0.29396240  0.72355757  0.68780863    -0.58000
O639        O  0.24702449  0.65842776  0.66420257    -0.48100
O640        O  0.25055405  0.72844918  0.68824256    -0.54400
C641        C  0.27167009  0.73712782  0.57431355     0.85600
O642        O  0.30322428  0.66720606  0.65709676    -0.56300
O643        O  0.22378870  0.69223171  0.63401994    -0.59600
In644      In  0.51695273  0.49635888  0.62081354     1.36900
C645        C  0.55715253  0.45834146  0.60577944     0.78100
O646        O  0.54759622  0.53043851  0.59926442    -0.60400
O647        O  0.53925454  0.52719648  0.66465102    -0.51300
C648        C  0.47569977  0.53005606  0.59580034     0.70700
O649        O  0.48804916  0.51249315  0.57058749    -0.46100
C650        C  0.48418470  0.45619511  0.65553174     0.75400
O651        O  0.54362862  0.46990309  0.57597836    -0.58000
O652        O  0.49613914  0.47643769  0.67676106    -0.48100
O653        O  0.54878270  0.46529539  0.64185298    -0.54400
C654        C  0.55310426  0.53961858  0.63555330     0.85600
O655        O  0.48524611  0.53066704  0.63219431    -0.56300
O656        O  0.48938736  0.45645453  0.61687048    -0.59600
In657      In  0.77565288  0.19947014  0.45281243     1.36900
C658        C  0.77418427  0.23510268  0.51887295     0.78100
O659        O  0.76944725  0.20668296  0.38460428    -0.60400
O660        O  0.77681667  0.24507630  0.42249032    -0.51300
C661        C  0.82233487  0.16812213  0.44961826     0.70700
O662        O  0.80833029  0.17133187  0.48248987    -0.46100
C663        C  0.73286372  0.16154929  0.45244923     0.75400
O664        O  0.79437161  0.23452716  0.49405018    -0.58000
O665        O  0.73113310  0.18879227  0.44164164    -0.48100
O666        O  0.75499327  0.21690963  0.51062182    -0.54400
C667        C  0.77219683  0.23491363  0.38667729     0.85600
O668        O  0.81258410  0.18143356  0.41847171    -0.56300
O669        O  0.75643752  0.15391262  0.46449128    -0.59600
In670      In  0.72831085  0.75559893  0.32360155     1.36900
C671        C  0.76112993  0.75403401  0.58936728     0.78100
O672        O  0.75382949  0.77849821  0.37265542    -0.60400
O673        O  0.75598677  0.73091857  0.36814157    -0.51300
C674        C  0.69234491  0.80002810  0.31117025     0.70700
O675        O  0.69869111  0.78119117  0.28346565    -0.46100
C676        C  0.69264288  0.71090346  0.33777390     0.75400
O677        O  0.74634661  0.77649969  0.59807083    -0.58000
O678        O  0.69684495  0.73181012  0.36350607    -0.48100
O679        O  0.74962683  0.73291326  0.26978593    -0.54400
C680        C  0.76370109  0.75440136  0.38676858     0.85600
O681        O  0.70453028  0.79591543  0.34514604    -0.56300
O682        O  0.70646354  0.71316556  0.30451365    -0.59600
In683      In  0.81483983  0.75299063  0.48915164     1.36900
C684        C  0.78225788  0.75377013  0.42253664     0.78100
O685        O  0.79333857  0.73044065  0.54329360    -0.60400
O686        O  0.78331719  0.77585506  0.52983305    -0.51300
C687        C  0.85181649  0.70979247  0.47612373     0.70700
O688        O  0.85253355  0.73458267  0.45678141    -0.46100
C689        C  0.85077490  0.79534927  0.51009209     0.75400
O690        O  0.79005629  0.72966224  0.43935168    -0.58000
O691        O  0.84473052  0.77349210  0.53357366    -0.48100
O692        O  0.79129992  0.77737786  0.43936845    -0.54400
C693        C  0.77962142  0.75338857  0.55319782     0.85600
O694        O  0.83160018  0.70707089  0.50082357    -0.56300
O695        O  0.83807613  0.79571466  0.47601270    -0.59600
In696      In  0.02571842  0.00487462  0.51958574     1.36900
C697        C  0.06643533  0.96892426  0.49810265     0.78100
O698        O  0.05939481  0.03828487  0.52342107    -0.60400
O699        O  0.03805637  0.02682783  0.57978760    -0.51300
C700        C  0.99154701  0.04387275  0.48562977     0.70700
O701        O  0.00810894  0.02860973  0.46356775    -0.46100
C702        C  0.99110540  0.96011049  0.53356031     0.75400
O703        O  0.05547275  0.98655479  0.47195968    -0.58000
O704        O  0.00084023  0.97553604  0.56320999    -0.48100
O705        O  0.05628987  0.97009505  0.53433366    -0.54400
C706        C  0.05710313  0.04194913  0.56225448     0.85600
O707        O  0.99306734  0.03932305  0.52429945    -0.56300
O708        O  0.99814325  0.96893899  0.49767641    -0.59600
In709      In  0.27492049  0.79462859  0.47286205     1.36900
C710        C  0.27270499  0.75787434  0.53873035     0.78100
O711        O  0.25307996  0.76421342  0.42795518    -0.60400
O712        O  0.29646023  0.76795750  0.42238528    -0.51300
C713        C  0.23332979  0.83426698  0.47665587     0.70700
O714        O  0.24547067  0.82508592  0.50877851    -0.46100
C715        C  0.31973847  0.82936836  0.46349261     0.75400
O716        O  0.25865616  0.75365907  0.50653423    -0.58000
O717        O  0.29769925  0.83361454  0.44403158    -0.48100
O718        O  0.28764456  0.78119720  0.53775957    -0.54400
C719        C  0.27455192  0.75658558  0.40858487     0.85600
O720        O  0.24286311  0.82341954  0.44346940    -0.56300
O721        O  0.31887516  0.80688662  0.48756902    -0.59600
In722      In  0.52327278  0.00325768  0.37826695     1.36900
C723        C  0.48281722  0.96694860  0.40288260     0.78100
O724        O  0.50080278  0.04403114  0.39905824    -0.60400
O725        O  0.50187260  0.03492417  0.33397102    -0.51300
C726        C  0.56777456  0.02873833  0.40937722     0.70700
O727        O  0.54967581  0.01652590  0.43264522    -0.46100
C728        C  0.55080866  0.95994267  0.34026127     0.75400
O729        O  0.50073829  0.97690995  0.42786592    -0.58000
O730        O  0.54101991  0.98193139  0.31989306    -0.48100
O731        O  0.48540745  0.97674011  0.36614712    -0.54400
C732        C  0.49344008  0.05191046  0.36308856     0.85600
O733        O  0.56244321  0.02854009  0.37097523    -0.56300
O734        O  0.54634153  0.96085534  0.37894461    -0.59600
In735      In  0.22546813  0.25194844  0.57801334     1.36900
C736        C  0.26068880  0.25170094  0.51377949     0.78100
O737        O  0.24562435  0.27258766  0.63330458    -0.60400
O738        O  0.25526378  0.22706904  0.61855582    -0.55700
C739        C  0.19134287  0.29775156  0.56582527     0.70700
O740        O  0.20619645  0.29559268  0.59762868    -0.46100
C741        C  0.18685524  0.21045169  0.59274005     0.75400
O742        O  0.25502300  0.27516587  0.53411792    -0.58000
O743        O  0.19628316  0.22707087  0.62095890    -0.48100
O744        O  0.24900417  0.22806626  0.52693085    -0.54400
C745        C  0.25850639  0.24903617  0.64293739     0.85600
O746        O  0.19468524  0.27698920  0.53959605    -0.56300
O747        O  0.19772422  0.21462761  0.55744465    -0.59600
In748      In  0.01693314  0.50740653  0.57675922     1.36900
C749        C  0.97313422  0.47164201  0.26511303     0.78100
O750        O  0.98724197  0.54481627  0.57805415    -0.60400
O751        O  0.00427513  0.53257486  0.51917462    -0.51300
C752        C  0.05162793  0.54654510  0.27280786     0.70700
O753        O  0.03534667  0.53283708  0.29774282    -0.46100
C754        C  0.05198998  0.46431720  0.55845522     0.75400
O755        O  0.98652051  0.48572494  0.29283990    -0.58000
O756        O  0.03914540  0.47821503  0.53021059    -0.48100
O757        O  0.98237917  0.47705485  0.56228820    -0.54400
C758        C  0.98859419  0.55009282  0.53947467     0.85600
O759        O  0.05277195  0.53766162  0.57017158    -0.56300
O760        O  0.04612102  0.47197944  0.59527201    -0.59600
C761        C  0.08611842  0.39069229  0.52755981    -0.05000
C762        C  0.11192000  0.39407689  0.54698935     0.09200
C763        C  0.11888904  0.42176718  0.56587182    -0.02400
C764        C  0.09970736  0.44541036  0.56711970    -0.00600
C765        C  0.07326870  0.44136537  0.55008363    -0.04200
C766        C  0.06679289  0.41437690  0.52904248     0.02800
C767        C  0.13117252  0.36799978  0.55044855     0.09600
C768        C  0.14553919  0.42556181  0.58527491     0.35500
C769        C  0.04070621  0.40524719  0.20247439     0.38900
C770        C  0.14826217  0.35973018  0.51666336    -0.04600
C771        C  0.16809105  0.33685975  0.52160294     0.02500
C772        C  0.17085780  0.32212714  0.56041611    -0.04200
C773        C  0.15318490  0.32994786  0.59386272    -0.00400
C774        C  0.13324078  0.35255111  0.58870152    -0.03000
C775        C  0.14534129  0.37471188  0.47682135     0.36300
C776        C  0.15484021  0.31412345  0.63333114     0.39900
C777        C  0.18627229  0.32928961  0.48715309     0.39000
C778        C  0.11440607  0.35963370  0.62257771     0.35900
C779        C  0.08417154  0.36174950  0.19810999     0.36600
C780        C  0.10719432  0.47410731  0.58570491     0.39900
N781        N  0.20084410  0.32324182  0.45974000    -0.38200
N782        N  0.14279132  0.38644429  0.44490348    -0.39800
N783        N  0.15615566  0.30151683  0.66480647    -0.37500
N784        N  0.09925168  0.36518941  0.64945663    -0.39900
N785        N  0.16670291  0.42850009  0.60102441    -0.39700
N786        N  0.11305298  0.49712420  0.60019170    -0.37300
N787        N  0.01817996  0.39804465  0.19632893    -0.38400
N788        N  0.07960098  0.33701078  0.18891927    -0.40000
C789        C  0.39466945  0.85645840  0.45731499    -0.05000
C790        C  0.39136299  0.88685345  0.44566828     0.09200
C791        C  0.36469024  0.89873652  0.44133168    -0.02400
C792        C  0.34135393  0.88015200  0.44771130    -0.00600
C793        C  0.34449323  0.84928779  0.45833592    -0.04200
C794        C  0.37141326  0.83769694  0.46365199     0.02800
C795        C  0.41600636  0.90608576  0.43582418     0.09600
C796        C  0.36130772  0.93019928  0.43010504     0.35500
C797        C  0.37546463  0.80628061  0.47448951     0.38900
C798        C  0.42763511  0.90546055  0.39553789    -0.04600
C799        C  0.44954047  0.92506813  0.38490126     0.02500
C800        C  0.46053497  0.94515303  0.41497803    -0.04200
C801        C  0.44985064  0.94428519  0.45617811    -0.00400
C802        C  0.42743125  0.92512049  0.46630245    -0.03000
C803        C  0.41714176  0.88428430  0.36506860     0.36300
C804        C  0.46143083  0.96337208  0.48824621     0.39900
C805        C  0.46098834  0.92381830  0.34304800     0.39000
C806        C  0.41601767  0.92499488  0.50814589     0.35900
C807        C  0.42218447  0.84449131  0.46229445     0.36600
C808        C  0.31413604  0.89326573  0.44438975     0.39900
N809        N  0.46999600  0.92283741  0.30959592    -0.38200
N810        N  0.40895228  0.86716571  0.34094519    -0.39800
N811        N  0.47080769  0.97840865  0.51395626    -0.37500
N812        N  0.40697680  0.92497317  0.54159668    -0.39900
N813        N  0.35858611  0.95531372  0.42126373    -0.39700
N814        N  0.29242090  0.90368096  0.44182008    -0.37300
N815        N  0.37872018  0.78123375  0.48326992    -0.38400
N816        N  0.44419732  0.83512588  0.46620513    -0.40000
C817        C  0.12364597  0.16187305  0.57435330    -0.05000
C818        C  0.12536551  0.14110448  0.60744187     0.09200
C819        C  0.14501545  0.14541155  0.63884216    -0.02400
C820        C  0.16444960  0.16908395  0.63539933    -0.00600
C821        C  0.16451510  0.18806566  0.59989193    -0.04200
C822        C  0.14343132  0.18496546  0.57011540     0.02800
C823        C  0.10901154  0.11261165  0.60549067     0.09600
C824        C  0.14558824  0.12479354  0.67387957     0.35500
C825        C  0.14216789  0.20530832  0.53474618     0.38900
C826        C  0.12077136  0.08714564  0.58616922    -0.04600
C827        C  0.10405798  0.06234577  0.57578340     0.02500
C828        C  0.07550568  0.06309466  0.58433722    -0.04200
C829        C  0.06451692  0.08679910  0.60850386    -0.00400
C830        C  0.08124041  0.11181721  0.61858172    -0.03000
C831        C  0.14981244  0.08717081  0.57510191     0.36300
C832        C  0.03582154  0.08617435  0.62120139     0.39900
C833        C  0.11621438  0.03604106  0.55618465     0.39000
C834        C  0.06969314  0.13738244  0.64054279     0.35900
C835        C  0.10179003  0.15899257  0.54411484     0.36600
C836        C  0.18523567  0.17258965  0.66716102     0.39900
N837        N  0.12602515  0.01498410  0.54097901    -0.38200
N838        N  0.17298348  0.08729383  0.56639284    -0.39800
N839        N  0.01296110  0.08552615  0.63164481    -0.37500
N840        N  0.06055275  0.15787426  0.65800249    -0.39900
N841        N  0.14578174  0.10818039  0.70168397    -0.39700
N842        N  0.20173735  0.17525126  0.69266487    -0.37300
N843        N  0.14132794  0.22139000  0.50638592    -0.38400
N844        N  0.08416549  0.15686462  0.52029493    -0.40000
C845        C  0.11606788  0.90326001  0.50514087    -0.05000
C846        C  0.13816556  0.91358896  0.48020623     0.09200
C847        C  0.13595665  0.94110086  0.45842479    -0.02400
C848        C  0.11179905  0.95853688  0.46213530    -0.00600
C849        C  0.08996156  0.94872652  0.48839569    -0.04200
C850        C  0.09200488  0.92057599  0.50907540     0.02800
C851        C  0.16378150  0.89514642  0.47743744     0.09600
C852        C  0.15903561  0.95202992  0.43367682     0.35500
C853        C  0.06937439  0.90913999  0.53448478     0.38900
C854        C  0.16662279  0.87345960  0.44581950    -0.04600
C855        C  0.18911536  0.85349620  0.44585525     0.02500
C856        C  0.20950871  0.85553837  0.47717099    -0.04200
C857        C  0.20683181  0.87797617  0.50835072    -0.00400
C858        C  0.18386393  0.89740722  0.50867583    -0.03000
C859        C  0.14583183  0.87117638  0.41380087     0.36300
C860        C  0.22783644  0.88178551  0.53970828     0.39900
C861        C  0.19032743  0.82998959  0.41453482     0.39000
C862        C  0.18040711  0.91944260  0.54163329     0.35900
C863        C  0.11854742  0.87510969  0.52788270     0.36600
C864        C  0.11012090  0.98722398  0.44057576     0.39900
N865        N  0.19121938  0.81119647  0.38959309    -0.38200
N866        N  0.12893367  0.86773013  0.72391636    -0.39800
N867        N  0.24445308  0.88522503  0.56485002    -0.37500
N868        N  0.17728793  0.93698155  0.56788357    -0.39900
N869        N  0.17753296  0.96090744  0.41418986    -0.39700
N870        N  0.10868561  0.01012235  0.42340604    -0.37300
N871        N  0.05144834  0.89993414  0.55489580    -0.38400
N872        N  0.12075348  0.85278721  0.54621974    -0.40000
C873        C  0.91694297  0.83185250  0.54815931    -0.05000
C874        C  0.91237046  0.86231286  0.53785483     0.09200
C875        C  0.88692987  0.87106553  0.52089140    -0.02400
C876        C  0.86650682  0.84926457  0.51279166    -0.00600
C877        C  0.87149466  0.81851408  0.52132196    -0.04200
C878        C  0.89666276  0.80991993  0.53967804     0.02800
C879        C  0.93506118  0.88495962  0.54133693     0.09600
C880        C  0.88201620  0.90250920  0.51098895     0.35500
C881        C  0.90239556  0.77839476  0.54789902     0.38900
C882        C  0.95645814  0.88520944  0.51142837    -0.04600
C883        C  0.97590853  0.90877451  0.51102266     0.02500
C884        C  0.97330132  0.93310375  0.53929824    -0.04200
C885        C  0.95302997  0.93170692  0.57111185    -0.00400
C886        C  0.93424656  0.90732775  0.57250196    -0.03000
C887        C  0.95817411  0.86148585  0.48041919     0.36300
C888        C  0.95061994  0.95579116  0.60138958     0.39900
C889        C  0.99894084  0.90754110  0.48194451     0.39000
C890        C  0.91390895  0.90525689  0.60568912     0.35900
C891        C  0.94284597  0.82310034  0.56664963     0.36600
C892        C  0.84019132  0.85864508  0.49624224     0.39900
N893        N  0.01743793  0.90652938  0.45899766    -0.38200
N894        N  0.95967719  0.84253112  0.45581016    -0.39800
N895        N  0.94862159  0.97494848  0.62561153    -0.37500
N896        N  0.89780756  0.90342570  0.63237460    -0.39900
N897        N  0.87813160  0.92763394  0.50331329    -0.39700
N898        N  0.81919492  0.86611124  0.48312243    -0.37300
N899        N  0.90703406  0.75324565  0.55437066    -0.38400
N900        N  0.96358216  0.81626635  0.58126745    -0.40000
C901        C  0.88746812  0.63388867  0.48488497    -0.05000
C902        C  0.91520976  0.64193205  0.47772778     0.09200
C903        C  0.92188427  0.67147497  0.46475294    -0.02400
C904        C  0.90115337  0.69364665  0.46243845    -0.00600
C905        C  0.87334071  0.68600884  0.47179339    -0.04200
C906        C  0.86655716  0.65553267  0.48070002     0.02800
C907        C  0.93739728  0.62051990  0.49001064     0.09600
C908        C  0.95039012  0.67926178  0.45592497     0.35500
C909        C  0.83804708  0.64620486  0.48577291     0.38900
C910        C  0.94457230  0.59586734  0.46448601    -0.04600
C911        C  0.96186809  0.57294403  0.47991385     0.02500
C912        C  0.97286522  0.57527429  0.52046977    -0.04200
C913        C  0.96768051  0.60159762  0.54418849    -0.00400
C914        C  0.94959541  0.62372709  0.52937022    -0.03000
C915        C  0.93407987  0.59416316  0.42247285     0.36300
C916        C  0.98117377  0.60633049  0.58379916     0.39900
C917        C  0.96716126  0.54645047  0.45473388     0.39000
C918        C  0.94296279  0.64958127  0.55518906     0.35900
C919        C  0.88056788  0.60372578  0.49934575     0.36600
C920        C  0.90902290  0.72453644  0.45297804     0.39900
N921        N  0.97136086  0.52524184  0.43474795    -0.38200
N922        N  0.92600737  0.59296283  0.38872960    -0.39800
N923        N  0.99198400  0.61014660  0.61532612    -0.37500
N924        N  0.93769411  0.67022188  0.57571725    -0.39900
N925        N  0.96999025  0.68325931  0.11849354    -0.39700
N926        N  0.91555187  0.74911200  0.44557747    -0.37300
N927        N  0.81530998  0.63867775  0.48966219    -0.38400
N928        N  0.87503154  0.57982012  0.51132764    -0.40000
C929        C  0.62909062  0.84325228  0.27416385    -0.05000
C930        C  0.62997277  0.86871128  0.30024984     0.09200
C931        C  0.65226744  0.87284451  0.32740130    -0.02400
C932        C  0.67336230  0.85125174  0.32930543    -0.00600
C933        C  0.67191019  0.82466804  0.30492944    -0.04200
C934        C  0.65002306  0.82131338  0.27623494     0.02800
C935        C  0.60623295  0.88990989  0.30276039     0.09600
C936        C  0.65270343  0.89876623  0.35494545     0.35500
C937        C  0.64822582  0.79490080  0.24980929     0.38900
C938        C  0.58459172  0.88360310  0.33091477    -0.04600
C939        C  0.56474787  0.90570964  0.33981410     0.02500
C940        C  0.56704563  0.93484033  0.32183052    -0.04200
C941        C  0.58757884  0.94035112  0.29117461    -0.00400
C942        C  0.60713478  0.91782598  0.28166878    -0.03000
C943        C  0.58405319  0.85510004  0.35322724     0.36300
C944        C  0.59013577  0.96981598  0.27184792     0.39900
C945        C  0.54238223  0.89859506  0.36852411     0.39000
C946        C  0.62932080  0.92393348  0.25232814     0.35900
C947        C  0.60594188  0.83907041  0.24651564     0.36600
C948        C  0.69668419  0.85687575  0.35616749     0.39900
N949        N  0.52459845  0.89292706  0.39152022    -0.38200
N950        N  0.58397663  0.83249326  0.37125299    -0.39800
N951        N  0.59243926  0.99333485  0.25652548    -0.37500
N952        N  0.64716857  0.92870412  0.22907381    -0.39900
N953        N  0.65271654  0.91935253  0.37705040    -0.39700
N954        N  0.71526895  0.86151242  0.37753978    -0.37300
N955        N  0.62873608  0.76960469  0.62523323    -0.38400
N956        N  0.58738419  0.83568186  0.22466385    -0.40000
C957        C  0.68367185  0.09658233  0.47807264    -0.05000
C958        C  0.66550699  0.09782601  0.44415393     0.09200
C959        C  0.66932822  0.12005858  0.41314737    -0.02400
C960        C  0.69105327  0.14112118  0.41612227    -0.00600
C961        C  0.70928551  0.14005399  0.45020555    -0.04200
C962        C  0.70521132  0.11792434  0.48149529     0.02800
C963        C  0.64163885  0.07647146  0.44128660     0.09600
C964        C  0.65084404  0.12114533  0.37794858     0.35500
C965        C  0.72209090  0.11820118  0.51850452     0.38900
C966        C  0.61694995  0.08247806  0.46323418    -0.04600
C967        C  0.59310162  0.06505509  0.45565281     0.02500
C968        C  0.59365903  0.04236523  0.42490523    -0.04200
C969        C  0.61894806  0.03472996  0.40566825    -0.00400
C970        C  0.64290325  0.05165375  0.41397021    -0.03000
C971        C  0.61580274  0.10748541  0.49220738     0.36300
C972        C  0.62041799  0.00907147  0.37778981     0.39900
C973        C  0.56787668  0.07118512  0.47843582     0.39000
C974        C  0.66870647  0.04404335  0.39363960     0.35900
C975        C  0.68026411  0.07315636  0.50923830     0.36600
C976        C  0.69469359  0.16365193  0.38368953     0.39900
N977        N  0.54783706  0.07588597  0.49704581    -0.38200
N978        N  0.61492470  0.12749245  0.51524559    -0.39800
N979        N  0.62169561  0.98843102  0.35590039    -0.37500
N980        N  0.68927998  0.03784291  0.37740126    -0.39900
N981        N  0.63616334  0.12188405  0.34982308    -0.39700
N982        N  0.69749522  0.18176107  0.35799930    -0.37300
N983        N  0.73533884  0.11877124  0.54823797    -0.38400
N984        N  0.67763258  0.05434132  0.53397298    -0.40000
C985        C  0.89503504  0.14205632  0.42185065    -0.05000
C986        C  0.89773497  0.11694379  0.44833136     0.09200
C987        C  0.87509792  0.10724466  0.47277098    -0.02400
C988        C  0.85027713  0.12354129  0.47242254    -0.00600
C989        C  0.84800138  0.14993986  0.44785432    -0.04200
C990        C  0.87033891  0.15867946  0.42173048     0.02800
C991        C  0.92459694  0.10088478  0.45152416     0.09600
C992        C  0.87729341  0.08019318  0.49798998     0.35500
C993        C  0.86837356  0.18519111  0.39544857     0.38900
C994        C  0.94478670  0.11148904  0.47920778    -0.04600
C995        C  0.96813888  0.09384152  0.48743564     0.02500
C996        C  0.97115642  0.06526935  0.46857805    -0.04200
C997        C  0.95230092  0.05606277  0.43778568    -0.00400
C998        C  0.92908423  0.07398676  0.42918186    -0.03000
C999        C  0.94113101  0.14019369  0.50008850     0.36300
C1000       C  0.95578534  0.02746806  0.41662940     0.39900
C1001       C  0.98921010  0.10508430  0.51518459     0.39000
C1002       C  0.90930669  0.06454432  0.39825183     0.35900
C1003       C  0.91767574  0.15047501  0.39442643     0.36600
C1004       C  0.82679558  0.11234558  0.49620223     0.39900
N1005       N  0.00624644  0.11405178  0.53695208    -0.38200
N1006       N  0.93828116  0.16313698  0.51663411    -0.39800
N1007       N  0.95840257  0.00471604  0.39950688    -0.37500
N1008       N  0.89341339  0.05735749  0.37348662    -0.39900
N1009       N  0.87893455  0.05849667  0.51784435    -0.39700
N1010       N  0.80802253  0.10333836  0.51496402    -0.37300
N1011       N  0.86680709  0.20629100  0.37438670    -0.38400
N1012       N  0.92882741  0.13742550  0.69373016    -0.40000
C1013       C  0.63405967  0.65714560  0.61856708    -0.05000
C1014       C  0.63393775  0.63561847  0.65095336     0.09200
C1015       C  0.65453732  0.64728766  0.39419928    -0.02400
C1016       C  0.67245657  0.67181700  0.38623390    -0.00600
C1017       C  0.67343579  0.68538014  0.34629097    -0.04200
C1018       C  0.65323712  0.68111152  0.61876068     0.02800
C1019       C  0.61398305  0.60990742  0.65007926     0.09600
C1020       C  0.65375612  0.63327349  0.43500078     0.35500
C1021       C  0.65287342  0.70333009  0.58556436     0.38900
C1022       C  0.62005556  0.58424611  0.62605938    -0.04600
C1023       C  0.60039451  0.56097884  0.62208360     0.02500
C1024       C  0.57460272  0.56300653  0.64284647    -0.04200
C1025       C  0.56928840  0.58798346  0.66903232    -0.00400
C1026       C  0.58887374  0.61150467  0.67229800    -0.03000
C1027       C  0.64668633  0.58198558  0.60547255     0.36300
C1028       C  0.54559314  0.59601380  0.40390061     0.39900
C1029       C  0.60707610  0.53475949  0.59710037     0.39000
C1030       C  0.58676445  0.64241670  0.40840616     0.35900
C1031       C  0.61467368  0.65428219  0.58468736     0.36600
C1032       C  0.69088535  0.68199855  0.41866260     0.39900
N1033       N  0.61267902  0.51395660  0.57708714    -0.38200
N1034       N  0.66806555  0.58049665  0.58943634    -0.39800
N1035       N  0.52368339  0.60043791  0.41686506    -0.37500
N1036       N  0.58200326  0.66521277  0.42435995    -0.39900
N1037       N  0.65313093  0.62211257  0.46757584    -0.39700
N1038       N  0.70573520  0.69000141  0.44439759    -0.37300
N1039       N  0.65253529  0.72093228  0.55893385    -0.38400
N1040       N  0.59932814  0.65185163  0.55754607    -0.40000
C1041       C  0.42578720  0.59520365  0.59710013    -0.05000
C1042       C  0.40117013  0.58098122  0.58469436     0.09200
C1043       C  0.40178579  0.55081375  0.57074611    -0.02400
C1044       C  0.42668655  0.53438756  0.57154415    -0.00600
C1045       C  0.45118145  0.54838910  0.58535524    -0.04200
C1046       C  0.45074163  0.57917356  0.59668290     0.02800
C1047       C  0.37445002  0.59721276  0.59075006     0.09600
C1048       C  0.37646604  0.53630523  0.55781366     0.35500
C1049       C  0.47598032  0.59424543  0.60891191     0.38900
C1050       C  0.36546926  0.61827725  0.56103291    -0.04600
C1051       C  0.34327678  0.63766160  0.57035040     0.02500
C1052       C  0.32947648  0.63571461  0.60941420    -0.04200
C1053       C  0.33753027  0.61315336  0.63808141    -0.00400
C1054       C  0.36004154  0.59420854  0.62882465    -0.03000
C1055       C  0.37965368  0.62056896  0.52127087     0.36300
C1056       C  0.32273356  0.60911353  0.67710128     0.39900
C1057       C  0.33591245  0.66076502  0.54045877     0.39000
C1058       C  0.36912315  0.57213857  0.65906373     0.35900
C1059       C  0.42500047  0.62580197  0.61305062     0.36600
C1060       C  0.42655683  0.50248244  0.56168899     0.39900
N1061       N  0.33005818  0.67929571  0.51677117    -0.38200
N1062       N  0.39086552  0.62242619  0.48942906    -0.39800
N1063       N  0.31105095  0.60565691  0.70832894    -0.37500
N1064       N  0.37661551  0.55447970  0.68291143    -0.39900
N1065       N  0.35619328  0.52480204  0.54760547    -0.39700
N1066       N  0.42640138  0.47695853  0.55422243    -0.37300
N1067       N  0.49611731  0.60632338  0.61845444    -0.38400
N1068       N  0.44310918  0.65941198  0.28677974    -0.40000
C1069       C  0.15025574  0.64676759  0.32457337    -0.05000
C1070       C  0.14821083  0.61599215  0.65743232     0.09200
C1071       C  0.17319805  0.60138678  0.64774103    -0.02400
C1072       C  0.19811733  0.61783317  0.64718300    -0.00600
C1073       C  0.19825104  0.64878064  0.65772962    -0.04200
C1074       C  0.17528174  0.66307406  0.32584209     0.02800
C1075       C  0.12154842  0.60068828  0.64784329     0.09600
C1076       C  0.17306264  0.56965546  0.63675549     0.35500
C1077       C  0.17645271  0.69112322  0.34894546     0.38900
C1078       C  0.10560198  0.60877226  0.26590819    -0.04600
C1079       C  0.08128789  0.59213151  0.25889708     0.02500
C1080       C  0.07375302  0.56796678  0.28573941    -0.04200
C1081       C  0.08610510  0.56298928  0.66413054    -0.00400
C1082       C  0.10937592  0.58008656  0.67601916    -0.03000
C1083       C  0.11419355  0.63196207  0.23654363     0.36300
C1084       C  0.07459914  0.54101701  0.69299181     0.39900
C1085       C  0.06420594  0.59986138  0.22364348     0.39000
C1086       C  0.12125767  0.57602494  0.71683954     0.35900
C1087       C  0.12551290  0.65922831  0.34322596     0.36600
C1088       C  0.22315498  0.60343779  0.63252281     0.39900
N1089       N  0.05063999  0.60598569  0.19544655    -0.38200
N1090       N  0.12114263  0.65030824  0.21299919    -0.39800
N1091       N  0.06552486  0.52354601  0.71619478    -0.37500
N1092       N  0.13070636  0.57273889  0.74947024    -0.39900
N1093       N  0.17300956  0.54429054  0.62833723    -0.39700
N1094       N  0.24307227  0.59206939  0.62045998    -0.37300
N1095       N  0.17739656  0.71330018  0.36783856    -0.38400
N1096       N  0.10577880  0.66915903  0.35813328    -0.40000
C1097       C  0.62719959  0.42344939  0.62541342    -0.05000
C1098       C  0.62758753  0.39948750  0.59672148     0.09200
C1099       C  0.60549644  0.39573116  0.56892379    -0.02400
C1100       C  0.58273531  0.41552759  0.57048458    -0.00600
C1101       C  0.58187348  0.43893583  0.60032498    -0.04200
C1102       C  0.60447883  0.44296164  0.62744094     0.02800
C1103       C  0.65151667  0.37833379  0.59633904     0.09600
C1104       C  0.60609754  0.37116265  0.53923774     0.35500
C1105       C  0.60463423  0.46741030  0.65748608     0.38900
C1106       C  0.65124583  0.35259145  0.62217576    -0.04600
C1107       C  0.67507777  0.33474907  0.62596316     0.02500
C1108       C  0.69933641  0.34230608  0.60342422    -0.04200
C1109       C  0.69907018  0.36737194  0.57598105    -0.00400
C1110       C  0.67535610  0.38549404  0.57294283    -0.03000
C1111       C  0.62644737  0.34463602  0.64524134     0.36300
C1112       C  0.72340380  0.37532703  0.55176513     0.39900
C1113       C  0.67435265  0.30818974  0.65237141     0.39000
C1114       C  0.67563718  0.41211175  0.54664834     0.35900
C1115       C  0.65028995  0.42792928  0.65314096     0.36600
C1116       C  0.55975771  0.41084503  0.54272109     0.39900
N1117       N  0.67396148  0.28694006  0.67335893    -0.38200
N1118       N  0.60667129  0.33811186  0.66355648    -0.39800
N1119       N  0.74272007  0.38163506  0.53221254    -0.37500
N1120       N  0.67579293  0.43345950  0.52586044    -0.39900
N1121       N  0.60663437  0.35147999  0.51564018    -0.39700
N1122       N  0.54144269  0.40698973  0.52054475    -0.37300
N1123       N  0.60461882  0.48682847  0.68152071    -0.38400
N1124       N  0.66150583  0.40370899  0.38821665    -0.40000
C1125       C  0.88406443  0.36549143  0.59507250    -0.05000
C1126       C  0.88328825  0.39129530  0.62062110     0.09200
C1127       C  0.86011418  0.39667689  0.64618212    -0.02400
C1128       C  0.83784022  0.37616638  0.64655144    -0.00600
C1129       C  0.83839658  0.35027956  0.62074654    -0.04200
C1130       C  0.86176938  0.34498179  0.59513370     0.02800
C1131       C  0.90631038  0.41373248  0.61873715     0.09600
C1132       C  0.85897394  0.42376167  0.67139016     0.35500
C1133       C  0.86251615  0.31928152  0.56728214     0.38900
C1134       C  0.90367877  0.43975812  0.59386840    -0.04600
C1135       C  0.92574331  0.46027613  0.59016031     0.02500
C1136       C  0.94881353  0.45206758  0.27398053    -0.04200
C1137       C  0.94988152  0.42907516  0.30440403    -0.00400
C1138       C  0.92779984  0.40836454  0.30882974    -0.03000
C1139       C  0.87870298  0.44459972  0.57042011     0.36300
C1140       C  0.97420544  0.42579365  0.32979909     0.39900
C1141       C  0.92269754  0.48737190  0.56520035     0.39000
C1142       C  0.92908733  0.38456776  0.33972390     0.35900
C1143       C  0.90745606  0.36073223  0.56747779     0.36600
C1144       C  0.81462730  0.38159025  0.67424689     0.39900
N1145       N  0.92042322  0.50902235  0.54539277    -0.38200
N1146       N  0.85886119  0.44825351  0.55146057    -0.39800
N1147       N  0.99365069  0.42312012  0.34997472    -0.37500
N1148       N  0.93016023  0.36547265  0.36423205    -0.39900
N1149       N  0.85796161  0.44552985  0.69118013    -0.39700
N1150       N  0.79612534  0.38593039  0.69633879    -0.37300
N1151       N  0.86319561  0.29883955  0.54492062    -0.38400
N1152       N  0.93113980  0.34383384  0.23264746    -0.40000
C1153       C  0.45104902  0.38155400  0.68599465    -0.05000
C1154       C  0.42574873  0.39127309  0.70312815     0.09200
C1155       C  0.42024046  0.42241824  0.70633624    -0.02400
C1156       C  0.43982220  0.44373430  0.69197461    -0.00600
C1157       C  0.46488459  0.43396104  0.67414247    -0.04200
C1158       C  0.47052251  0.40283470  0.67135423     0.02800
C1159       C  0.40371604  0.36852878  0.71269839     0.09600
C1160       C  0.39684035  0.44169462  0.44806285     0.35500
C1161       C  0.49625871  0.39269996  0.65301263     0.38900
C1162       C  0.39921663  0.35793972  0.45836219    -0.04600
C1163       C  0.37975807  0.33417619  0.45807692     0.02500
C1164       C  0.36178859  0.33057679  0.42381344    -0.04200
C1165       C  0.36656676  0.33610198  0.68774696    -0.00400
C1166       C  0.38584167  0.35947229  0.68085142    -0.03000
C1167       C  0.41824614  0.36111208  0.49260648     0.36300
C1168       C  0.34872020  0.32767757  0.65363255     0.39900
C1169       C  0.37813728  0.31389235  0.49347974     0.39000
C1170       C  0.38779519  0.37400066  0.64036903     0.35900
C1171       C  0.45647765  0.34955353  0.68187064     0.36600
C1172       C  0.43348494  0.47567018  0.69296586     0.39900
N1173       N  0.37681907  0.29789982  0.52193622    -0.38200
N1174       N  0.43339849  0.36380880  0.51995071    -0.39800
N1175       N  0.33463379  0.32114482  0.62618358    -0.37500
N1176       N  0.38949740  0.38565109  0.60819600    -0.39900
N1177       N  0.37680438  0.45052729  0.46340706    -0.39700
N1178       N  0.43603415  0.50866762  0.42600889    -0.37300
N1179       N  0.51677551  0.38461708  0.63833276    -0.38400
N1180       N  0.46065727  0.32399869  0.67847125    -0.40000
C1181       C  0.38999704  0.13962074  0.38641406    -0.05000
C1182       C  0.41368936  0.14826585  0.36343571     0.09200
C1183       C  0.41647472  0.17833775  0.34943738    -0.02400
C1184       C  0.39626601  0.19988356  0.35986506    -0.00600
C1185       C  0.37241856  0.19117298  0.38259548    -0.04200
C1186       C  0.36921017  0.16080308  0.39525403     0.02800
C1187       C  0.43652551  0.12604692  0.35720714     0.09600
C1188       C  0.44027994  0.18718197  0.32465658     0.35500
C1189       C  0.34426137  0.15103945  0.41657531     0.38900
C1190       C  0.43321935  0.10121545  0.33019451    -0.04600
C1191       C  0.45244029  0.07736724  0.33043492     0.02500
C1192       C  0.47561814  0.07876538  0.35675908    -0.04200
C1193       C  0.48007318  0.10500038  0.38085260    -0.00400
C1194       C  0.46035950  0.12818746  0.38176483    -0.03000
C1195       C  0.40934532  0.09971926  0.30348227     0.36300
C1196       C  0.50505191  0.10834862  0.40478514     0.39900
C1197       C  0.44716423  0.05058232  0.30588346     0.39000
C1198       C  0.46393813  0.15360832  0.40963258     0.35900
C1199       C  0.38728312  0.10893935  0.40176087     0.36600
C1200       C  0.40084307  0.23136072  0.34929041     0.39900
N1201       N  0.44274135  0.02917671  0.28643451    -0.38200
N1202       N  0.39022180  0.09862908  0.28231675    -0.39800
N1203       N  0.52502402  0.11142307  0.42366339    -0.37500
N1204       N  0.46668929  0.17388589  0.43187457    -0.39900
N1205       N  0.45920471  0.19437850  0.30479033    -0.39700
N1206       N  0.40447903  0.25655834  0.34140521    -0.37300
N1207       N  0.32432099  0.14314375  0.43341898    -0.38400
N1208       N  0.38522135  0.08444574  0.41392330    -0.40000
In1209     In  0.31117905  0.24797586  0.74229665     1.36900
C1210       C  0.27852516  0.25051090  0.80903174     0.78100
O1211       O  0.27910192  0.26994446  0.70332466    -0.60400
O1212       O  0.28546949  0.23373902  0.02855741    -0.51300
C1213       C  0.34573230  0.29487362  0.73337287     0.70700
O1214       O  0.34273039  0.28079727  0.76726276    -0.46100
C1215       C  0.34696821  0.20265602  0.74324685     0.75400
O1216       O  0.29281230  0.27259081  0.79661372    -0.58000
O1217       O  0.34246419  0.21842084  0.71148857    -0.48100
O1218       O  0.28070749  0.22702219  0.78718665    -0.54400
C1219       C  0.27954308  0.25712491  0.00840438     0.85600
O1220       O  0.33122141  0.30356123  0.05638055    -0.56300
O1221       O  0.33260037  0.20973932  0.77451865    -0.59600
In1222     In  0.77190343  0.29845769  0.95411856     1.36900
C1223       C  0.77519807  0.26304561  0.88854141     0.78100
O1224       O  0.76366580  0.25323415  0.98151439    -0.60400
O1225       O  0.77955582  0.28600708  0.68722237    -0.51300
C1226       C  0.81344307  0.33674012  0.94762598     0.70700
O1227       O  0.81511281  0.31233656  0.96751996    -0.46100
C1228       C  0.72660398  0.33088115  0.96265869     0.75400
O1229       O  0.79617595  0.27484929  0.90463248    -0.58000
O1230       O  0.73904971  0.31957557  0.99309129    -0.48100
O1231       O  0.75256624  0.26977699  0.90547254    -0.54400
C1232       C  0.77436748  0.25817410  0.68689881     0.85600
O1233       O  0.79032171  0.34168816  0.93168740    -0.56300
O1234       O  0.73756285  0.32581074  0.92772315    -0.59600
In1235     In  0.27247301  0.69887473  0.96955857     1.36900
C1236       C  0.27336507  0.73321179  0.03727912     0.78100
O1237       O  0.27177329  0.74498048  0.94116321    -0.60400
O1238       O  0.27406127  0.70729142  0.90054691    -0.51300
C1239       C  0.31818356  0.66558300  0.97228978     0.70700
O1240       O  0.31240900  0.68227273  0.94181619    -0.46100
C1241       C  0.22671818  0.66498130  0.96385860     0.75400
O1242       O  0.29407234  0.72989337  0.01397901    -0.58000
O1243       O  0.24979600  0.65424511  0.97326394    -0.48100
O1244       O  0.25252751  0.71800955  0.02706259    -0.54400
C1245       C  0.27308789  0.73557783  0.90429878     0.85600
O1246       O  0.30008231  0.66562858  0.00068601    -0.56300
O1247       O  0.22723163  0.69295590  0.95727877    -0.59600
In1248     In  0.52422066  0.50180262  0.04506368     1.36900
C1249       C  0.56196047  0.46172990  0.02480117     0.78100
O1250       O  0.55447474  0.53522420  0.02200509    -0.60400
O1251       O  0.54778935  0.53266868  0.08782460    -0.51300
C1252       C  0.48533858  0.53530117  0.01282480     0.70700
O1253       O  0.49823652  0.51611766  0.99098420    -0.46100
C1254       C  0.48941640  0.46524445  0.08244260     0.75400
O1255       O  0.54723211  0.47453959  0.99765167    -0.58000
O1256       O  0.50336131  0.48420533  0.10308997    -0.48100
O1257       O  0.55622573  0.46873018  0.06196879    -0.54400
C1258       C  0.56093861  0.54464283  0.05767497     0.85600
O1259       O  0.49282325  0.53744402  0.05022338    -0.56300
O1260       O  0.49392354  0.46484692  0.04372414    -0.59600
In1261     In  0.77962331  0.20421495  0.79093543     1.36900
C1262       C  0.77691999  0.24246362  0.85351892     0.78100
O1263       O  0.77086949  0.21121074  0.72314630    -0.60400
O1264       O  0.78535227  0.24862135  0.75797043    -0.51300
C1265       C  0.82513103  0.17030146  0.78867135     0.70700
O1266       O  0.81508745  0.18108324  0.82165965    -0.46100
C1267       C  0.73622324  0.16782066  0.80337476     0.75400
O1268       O  0.79925216  0.23678113  0.83491703    -0.58000
O1269       O  0.73535133  0.19148859  0.78175895    -0.48100
O1270       O  0.75609873  0.22876727  0.84001650    -0.54400
C1271       C  0.77696278  0.23887541  0.72356829     0.85600
O1272       O  0.81194522  0.17718630  0.75641933    -0.56300
O1273       O  0.75968234  0.16244338  0.81796573    -0.59600
In1274     In  0.72755585  0.75488660  0.65487282     1.36900
C1275       C  0.76146048  0.75705981  0.92180352     0.78100
O1276       O  0.76214313  0.77507910  0.69142300    -0.60400
O1277       O  0.74513954  0.73330538  0.71201876    -0.51300
C1278       C  0.69302384  0.80081821  0.66278107     0.70700
O1279       O  0.69331440  0.78403342  0.63123317    -0.46100
C1280       C  0.69220015  0.70910013  0.65260256     0.75400
O1281       O  0.75396383  0.78124480  0.93879648    -0.58000
O1282       O  0.69718721  0.72361978  0.68536681    -0.48100
O1283       O  0.75896897  0.73220697  0.61436001    -0.54400
C1284       C  0.76223078  0.75429678  0.71821877     0.85600
O1285       O  0.71109906  0.79473557  0.68917521    -0.56300
O1286       O  0.70556034  0.71783710  0.62103707    -0.59600
In1287     In  0.81370050  0.75595517  0.81959282     1.36900
C1288       C  0.78051218  0.75482037  0.75414678     0.78100
O1289       O  0.78982173  0.73254500  0.87090858    -0.60400
O1290       O  0.78647286  0.78001330  0.86568894    -0.51300
C1291       C  0.84998138  0.71282239  0.80222709     0.70700
O1292       O  0.84582197  0.73471767  0.77805237    -0.46100
C1293       C  0.84835815  0.80054871  0.83833052     0.75400
O1294       O  0.78064837  0.73419948  0.78108745    -0.58000
O1295       O  0.84961610  0.77464621  0.85442316    -0.48100
O1296       O  0.79715274  0.77610646  0.76073066    -0.54400
C1297       C  0.77965615  0.75648617  0.88521788     0.85600
O1298       O  0.83541883  0.71311169  0.83491273    -0.56300
O1299       O  0.82907117  0.80352445  0.81263199    -0.59600
In1300     In  0.02843734  0.00582432  0.86038317     1.36900
C1301       C  0.06959878  0.96917061  0.84128114     0.78100
O1302       O  0.06030837  0.04132525  0.86204860    -0.60400
O1303       O  0.04019342  0.02976419  0.91949489    -0.51300
C1304       C  0.99359089  0.04350230  0.82551328     0.70700
O1305       O  0.01123873  0.02930784  0.80395846    -0.46100
C1306       C  0.99279791  0.96182494  0.87260181     0.75400
O1307       O  0.05825596  0.98582307  0.81430653    -0.58000
O1308       O  0.00140244  0.97768393  0.90268797    -0.48100
O1309       O  0.05993989  0.97203594  0.87770963    -0.54400
C1310       C  0.05798995  0.04592080  0.90069789     0.85600
O1311       O  0.99443728  0.03880911  0.86417849    -0.56300
O1312       O  0.00221989  0.96904583  0.83726258    -0.59600
In1313     In  0.27713192  0.79353653  0.80442987     1.36900
C1314       C  0.27383002  0.75609914  0.86874175     0.78100
O1315       O  0.25363735  0.76698013  0.75713936    -0.60400
O1316       O  0.29734294  0.76526669  0.75467907    -0.51300
C1317       C  0.23458107  0.83167331  0.80689843     0.70700
O1318       O  0.24183084  0.81610548  0.83762826    -0.46100
C1319       C  0.32417679  0.82533830  0.80896583     0.75400
O1320       O  0.27439428  0.74691729  0.83169482    -0.58000
O1321       O  0.30600024  0.83070778  0.78229519    -0.48100
O1322       O  0.27432444  0.78436125  0.87291558    -0.54400
C1323       C  0.27481581  0.75647916  0.73955943     0.85600
O1324       O  0.24910220  0.82778991  0.77468474    -0.56300
O1325       O  0.31828232  0.80335656  0.83206255    -0.59600
In1326     In  0.52774280  0.00029692  0.78968768     1.36900
C1327       C  0.49004215  0.96062675  0.81231645     0.78100
O1328       O  0.50076786  0.03782005  0.80940448    -0.60400
O1329       O  0.50489255  0.02853527  0.74425343    -0.51300
C1330       C  0.57115044  0.03120991  0.81378266     0.70700
O1331       O  0.55582614  0.01754338  0.83999635    -0.46100
C1332       C  0.55778147  0.95876711  0.75357125     0.75400
O1333       O  0.50479113  0.97388959  0.83922147    -0.58000
O1334       O  0.54452025  0.97798742  0.73248527    -0.48100
O1335       O  0.49422048  0.96874216  0.77515280    -0.54400
C1336       C  0.49371668  0.04415155  0.77266961     0.85600
O1337       O  0.56335668  0.02989061  0.77642723    -0.56300
O1338       O  0.55559444  0.96162018  0.79256574    -0.59600
In1339     In  0.22604374  0.25673353  0.91009991     1.36900
C1340       C  0.26050476  0.25233376  0.84570994     0.78100
O1341       O  0.25277252  0.28076076  0.95595995    -0.60400
O1342       O  0.25122656  0.23289853  0.95808213    -0.55700
C1343       C  0.19238620  0.30195398  0.89318570     0.70700
O1344       O  0.20240243  0.29803258  0.92881114    -0.46100
C1345       C  0.18692330  0.21605762  0.92452127     0.75400
O1346       O  0.25695356  0.27656533  0.86542892    -0.58000
O1347       O  0.19264002  0.23652438  0.95022920    -0.48100
O1348       O  0.24705954  0.23004671  0.85960268    -0.54400
C1349       C  0.26069996  0.25690264  0.97331631     0.85600
O1350       O  0.19987896  0.28289853  0.86647049    -0.56300
O1351       O  0.20175381  0.21601366  0.89211779    -0.59600
In1352     In  0.01808937  0.50750174  0.86820884     1.36900
C1353       C  0.97519326  0.47316683  0.59973860     0.78100
O1354       O  0.99060571  0.54674167  0.87296531    -0.60400
O1355       O  0.00439214  0.53428957  0.81222221    -0.51300
C1356       C  0.05354738  0.54515768  0.60799295     0.70700
O1357       O  0.03509344  0.53295292  0.63070239    -0.46100
C1358       C  0.05337482  0.46437044  0.85182939     0.75400
O1359       O  0.98986883  0.48658253  0.62645813    -0.58000
O1360       O  0.04138404  0.47827006  0.82263189    -0.48100
O1361       O  0.98414446  0.47631377  0.85261055    -0.54400
C1362       C  0.99038707  0.55233601  0.83446168     0.85600
O1363       O  0.05463333  0.53625225  0.86185969    -0.56300
O1364       O  0.04609389  0.47160994  0.88826251    -0.59600
C1365       C  0.09105928  0.39103709  0.83214962    -0.05000
C1366       C  0.11609572  0.39739388  0.85236067     0.09200
C1367       C  0.12197238  0.42696417  0.86559771    -0.02400
C1368       C  0.10205489  0.44961508  0.86146116    -0.00600
C1369       C  0.07585146  0.44255552  0.84537297    -0.04200
C1370       C  0.07070902  0.41354958  0.82913722     0.02800
C1371       C  0.13554195  0.37260183  0.86245598     0.09600
C1372       C  0.14821008  0.43381899  0.88473155     0.35500
C1373       C  0.03983453  0.41043331  0.51075553     0.38900
C1374       C  0.15643446  0.36452667  0.83402642    -0.04600
C1375       C  0.17537498  0.34185007  0.84444159     0.02500
C1376       C  0.17320048  0.32677649  0.88321172    -0.04200
C1377       C  0.15215540  0.33494939  0.91169503    -0.00400
C1378       C  0.13345662  0.35789080  0.90132347    -0.03000
C1379       C  0.15838528  0.37965047  0.79407309     0.36300
C1380       C  0.14904605  0.31917570  0.95108666     0.39900
C1381       C  0.19768911  0.33484411  0.81577588     0.39000
C1382       C  0.11187417  0.36635360  0.93051303     0.35900
C1383       C  0.07914496  0.36243491  0.50754515     0.36600
C1384       C  0.10849763  0.48026351  0.87394206     0.39900
N1385       N  0.21559772  0.32920731  0.79313218    -0.38200
N1386       N  0.15983213  0.39167144  0.76213247    -0.39800
N1387       N  0.14651373  0.30659972  0.98249295    -0.37500
N1388       N  0.09462682  0.37320503  0.95366241    -0.39900
N1389       N  0.16909077  0.43930447  0.90008311    -0.39700
N1390       N  0.11393316  0.50471973  0.88346917    -0.37300
N1391       N  0.01832854  0.40732080  0.49614264    -0.38400
N1392       N  0.07370917  0.33985076  0.49149800    -0.40000
C1393       C  0.39682671  0.84879291  0.84157158    -0.05000
C1394       C  0.39831315  0.87858822  0.82651682     0.09200
C1395       C  0.37565651  0.89102009  0.80556210    -0.02400
C1396       C  0.35154893  0.87376902  0.79951592    -0.00600
C1397       C  0.35002098  0.84350397  0.81383977    -0.04200
C1398       C  0.37304728  0.83112284  0.83476784     0.02800
C1399       C  0.42450838  0.89632957  0.82913678     0.09600
C1400       C  0.37730615  0.92176578  0.79007861     0.35500
C1401       C  0.37279647  0.79997527  0.84874881     0.38900
C1402       C  0.44569998  0.89084347  0.79992357    -0.04600
C1403       C  0.46810869  0.91093462  0.79648413     0.02500
C1404       C  0.46942369  0.93681416  0.82213373    -0.04200
C1405       C  0.44937407  0.94096745  0.85366634    -0.00400
C1406       C  0.42692589  0.92069434  0.85718090    -0.03000
C1407       C  0.44378213  0.86523060  0.77200388     0.36300
C1408       C  0.45083396  0.96709973  0.88058468     0.39900
C1409       C  0.48961640  0.90511017  0.76591245     0.39000
C1410       C  0.40568966  0.92554855  0.88840604     0.35900
C1411       C  0.41985062  0.83635561  0.86424017     0.36600
C1412       C  0.32821461  0.88784238  0.77955117     0.39900
N1413       N  0.50665851  0.90041939  0.74138849    -0.38200
N1414       N  0.44225840  0.84476102  0.74982197    -0.39800
N1415       N  0.45216639  0.98805710  0.90189409    -0.37500
N1416       N  0.38870196  0.92945579  0.91328591    -0.39900
N1417       N  0.37880412  0.94633817  0.77803708    -0.39700
N1418       N  0.30971275  0.89934598  0.76372184    -0.37300
N1419       N  0.37251643  0.77514543  0.85993344    -0.38400
N1420       N  0.43811516  0.82639537  0.88248133    -0.40000
C1421       C  0.12605966  0.16462159  0.90324896    -0.05000
C1422       C  0.12454208  0.14781818  0.94048491     0.09200
C1423       C  0.14117698  0.15584710  0.97440712    -0.02400
C1424       C  0.16099843  0.17905222  0.96993827    -0.00600
C1425       C  0.16432095  0.19397513  0.93123038    -0.04200
C1426       C  0.14615859  0.18732685  0.89833645     0.02800
C1427       C  0.10819806  0.11925997  0.94104274     0.09600
C1428       C  0.13809568  0.13980281  0.01351367     0.35500
C1429       C  0.14800817  0.20388573  0.85938599     0.38900
C1430       C  0.12056221  0.09276278  0.92568670    -0.04600
C1431       C  0.10415090  0.06764671  0.91566984     0.02500
C1432       C  0.07533091  0.06883730  0.92131863    -0.04200
C1433       C  0.06331203  0.09416847  0.94081444    -0.00400
C1434       C  0.07982207  0.11945476  0.95061769    -0.03000
C1435       C  0.15003509  0.09204751  0.91797393     0.36300
C1436       C  0.03380671  0.09519415  0.94772380     0.39900
C1437       C  0.11681389  0.04090152  0.89803978     0.39000
C1438       C  0.06757310  0.14623444  0.96859838     0.35900
C1439       C  0.10705762  0.15813789  0.86980209     0.36600
C1440       C  0.17885894  0.18637346  0.00443093     0.39900
N1441       N  0.12684823  0.01959127  0.88390298    -0.38200
N1442       N  0.17354851  0.09157550  0.91187951    -0.39800
N1443       N  0.01022954  0.09609372  0.95311614    -0.37500
N1444       N  0.05795719  0.16765011  0.98308709    -0.39900
N1445       N  0.13538351  0.12703768  0.04472490    -0.39700
N1446       N  0.19311994  0.19227383  0.03194303    -0.37300
N1447       N  0.14952473  0.21703284  0.82830405    -0.38400
N1448       N  0.09163301  0.15304919  0.84345300    -0.40000
C1449       C  0.11845114  0.90195959  0.84801956    -0.05000
C1450       C  0.13876520  0.90977941  0.81825169     0.09200
C1451       C  0.13534550  0.93590906  0.79373600    -0.02400
C1452       C  0.11215254  0.95460248  0.79979548    -0.00600
C1453       C  0.09262613  0.94790876  0.83159278    -0.04200
C1454       C  0.09578898  0.92109244  0.85526615     0.02800
C1455       C  0.16415091  0.89079701  0.81390898     0.09600
C1456       C  0.15608836  0.94395497  0.76288559     0.35500
C1457       C  0.07567095  0.91271216  0.88694941     0.38900
C1458       C  0.16724542  0.87080225  0.78005677    -0.04600
C1459       C  0.19048408  0.85183487  0.77734574     0.02500
C1460       C  0.21074945  0.85260359  0.80865342    -0.04200
C1461       C  0.20767449  0.87273656  0.84244131    -0.00400
C1462       C  0.18451948  0.89176334  0.84499794    -0.03000
C1463       C  0.14597747  0.86905138  0.74877641     0.36300
C1464       C  0.22855368  0.87428089  0.87439207     0.39900
C1465       C  0.19273752  0.83031717  0.74354871     0.39000
C1466       C  0.18138556  0.91208380  0.88005656     0.35900
C1467       C  0.12098688  0.87402641  0.87126530     0.36600
C1468       C  0.10907358  0.98124040  0.77404045     0.39900
N1469       N  0.19457267  0.81297379  0.71679363    -0.38200
N1470       N  0.11963072  0.85135976  0.04048738    -0.39800
N1471       N  0.24517993  0.87553147  0.89990007    -0.37500
N1472       N  0.17874465  0.92813063  0.90817075    -0.39900
N1473       N  0.17261002  0.95043227  0.73822506    -0.39700
N1474       N  0.10651515  0.00239649  0.75332181    -0.37300
N1475       N  0.05974423  0.90600493  0.91238847    -0.38400
N1476       N  0.12313311  0.85168986  0.88959006    -0.40000
C1477       C  0.90246259  0.84717625  0.89554842    -0.05000
C1478       C  0.90910069  0.86932998  0.86563236     0.09200
C1479       C  0.89517114  0.86971586  0.82730662    -0.02400
C1480       C  0.87491890  0.84776770  0.81860176    -0.00600
C1481       C  0.86829178  0.82518941  0.84843097    -0.04200
C1482       C  0.88173447  0.82562533  0.88746140     0.02800
C1483       C  0.93191712  0.89135786  0.87312081     0.09600
C1484       C  0.90248895  0.89217048  0.79610722     0.35500
C1485       C  0.87387809  0.80448277  0.92003081     0.38900
C1486       C  0.95776327  0.88666759  0.85400617    -0.04600
C1487       C  0.97823390  0.90917046  0.85582587     0.02500
C1488       C  0.97305877  0.93646671  0.87716227    -0.04200
C1489       C  0.94783191  0.94035458  0.89862760    -0.00400
C1490       C  0.92727780  0.91777070  0.89662106    -0.03000
C1491       C  0.96292996  0.85893024  0.83141096     0.36300
C1492       C  0.94222021  0.96843368  0.92012152     0.39900
C1493       C  0.00449636  0.90437133  0.83500315     0.39000
C1494       C  0.90101504  0.92217138  0.91745099     0.35900
C1495       C  0.91777442  0.84585277  0.93403711     0.36600
C1496       C  0.86172799  0.84810613  0.77826704     0.39900
N1497       N  0.02535945  0.90060932  0.81816263    -0.38200
N1498       N  0.96690747  0.83678514  0.81335993    -0.39800
N1499       N  0.93775208  0.99094169  0.93702235    -0.37500
N1500       N  0.88012271  0.92575426  0.93427841    -0.39900
N1501       N  0.90852214  0.90989997  0.77113936    -0.39700
N1502       N  0.85121307  0.84851799  0.74609088    -0.37300
N1503       N  0.86751541  0.78776790  0.94612591    -0.38400
N1504       N  0.93015303  0.84455611  0.96458403    -0.40000
C1505       C  0.88609617  0.63703642  0.80517843    -0.05000
C1506       C  0.91256837  0.64471923  0.79004652     0.09200
C1507       C  0.91759630  0.67400489  0.77436275    -0.02400
C1508       C  0.89673995  0.69607157  0.77625582    -0.00600
C1509       C  0.87067067  0.68886457  0.79385945    -0.04200
C1510       C  0.86513619  0.65885533  0.80654834     0.02800
C1511       C  0.93585963  0.62325083  0.79639809     0.09600
C1512       C  0.94479410  0.68181508  0.75862279     0.35500
C1513       C  0.83784435  0.65031188  0.82121060     0.38900
C1514       C  0.93912532  0.59761126  0.77084859    -0.04600
C1515       C  0.95856432  0.57524232  0.78123959     0.02500
C1516       C  0.97431326  0.57814865  0.81786158    -0.04200
C1517       C  0.97240712  0.60502489  0.84149525    -0.00400
C1518       C  0.95323629  0.62737248  0.83083774    -0.03000
C1519       C  0.92168818  0.59372303  0.73487236     0.36300
C1520       C  0.99009948  0.60982198  0.87707881     0.39900
C1521       C  0.96131732  0.54870791  0.75525518     0.39000
C1522       C  0.95052987  0.65417514  0.85642880     0.35900
C1523       C  0.88088294  0.60707531  0.82180200     0.36600
C1524       C  0.90284746  0.72659031  0.76251058     0.39900
N1525       N  0.96362511  0.52763269  0.73432418    -0.38200
N1526       N  0.90767271  0.59049122  0.70626726    -0.39800
N1527       N  0.00413432  0.61372096  0.90550829    -0.37500
N1528       N  0.94829658  0.67564932  0.87658835    -0.39900
N1529       N  0.97318904  0.68528423  0.44896846    -0.39700
N1530       N  0.90776652  0.75091860  0.75157303    -0.37300
N1531       N  0.81605002  0.64351393  0.83282894    -0.38400
N1532       N  0.87677346  0.58325438  0.83528926    -0.40000
C1533       C  0.62481237  0.84230952  0.66807222    -0.05000
C1534       C  0.63255111  0.86864289  0.68948353     0.09200
C1535       C  0.66022540  0.87345500  0.70047435    -0.02400
C1536       C  0.68026918  0.85192732  0.68999020    -0.00600
C1537       C  0.67254155  0.82501009  0.66946069    -0.04200
C1538       C  0.64468094  0.82034189  0.65839430     0.02800
C1539       C  0.61129331  0.89049133  0.70344283     0.09600
C1540       C  0.66776503  0.90009037  0.72406438     0.35500
C1541       C  0.63592941  0.79214537  0.63976056     0.38900
C1542       C  0.59728436  0.88547812  0.74131367    -0.04600
C1543       C  0.57892648  0.90720894  0.75682293     0.02500
C1544       C  0.57491663  0.93459922  0.73474331    -0.04200
C1545       C  0.58867887  0.93917463  0.69613663    -0.00400
C1546       C  0.60669533  0.91701836  0.68050113    -0.03000
C1547       C  0.60264834  0.85825679  0.76501103     0.36300
C1548       C  0.58590687  0.96732809  0.67353202     0.39900
C1549       C  0.56437770  0.90109782  0.79563267     0.39000
C1550       C  0.62137459  0.92182872  0.64152680     0.35900
C1551       C  0.59615948  0.83735461  0.65750463     0.36600
C1552       C  0.70883621  0.85764267  0.70039853     0.39900
N1553       N  0.55286785  0.89620015  0.82665783    -0.38200
N1554       N  0.60723855  0.83653255  0.78361216    -0.39800
N1555       N  0.58400344  0.98977321  0.65540988    -0.37500
N1556       N  0.63324815  0.92552458  0.61051585    -0.39900
N1557       N  0.67352485  0.92128408  0.74316081    -0.39700
N1558       N  0.73160490  0.86219326  0.70872304    -0.37300
N1559       N  0.65002610  0.77543943  0.87978078    -0.38400
N1560       N  0.57330354  0.83334423  0.64921928    -0.40000
C1561       C  0.68664966  0.11113027  0.85432319    -0.05000
C1562       C  0.66584843  0.10906140  0.82413299     0.09200
C1563       C  0.66755847  0.12711898  0.78801715    -0.02400
C1564       C  0.69054317  0.14606171  0.78102050    -0.00600
C1565       C  0.71165864  0.14809999  0.81105648    -0.04200
C1566       C  0.70906642  0.13118102  0.84841264     0.02800
C1567       C  0.64304978  0.08632575  0.82830190     0.09600
C1568       C  0.64574142  0.12571388  0.75750367     0.35500
C1569       C  0.72888432  0.13504359  0.88154129     0.38900
C1570       C  0.61912956  0.09261626  0.85204715    -0.04600
C1571       C  0.59643025  0.07251145  0.85134093     0.02500
C1572       C  0.59690534  0.04735731  0.82454125    -0.04200
C1573       C  0.62146662  0.04005984  0.80305035    -0.00400
C1574       C  0.64458142  0.05925857  0.80539878    -0.03000
C1575       C  0.61719178  0.12069714  0.87485731     0.36300
C1576       C  0.62295753  0.01268330  0.77843447     0.39900
C1577       C  0.57237385  0.07806013  0.87713962     0.39000
C1578       C  0.66963092  0.05188017  0.78279787     0.35900
C1579       C  0.68536994  0.09196426  0.89089337     0.36600
C1580       C  0.69276786  0.16243327  0.74197839     0.39900
N1581       N  0.55327607  0.08200092  0.89822538    -0.38200
N1582       N  0.61550611  0.14330705  0.89260153    -0.39800
N1583       N  0.62424999  0.99079709  0.75897144    -0.37500
N1584       N  0.68965409  0.04609875  0.76476046    -0.39900
N1585       N  0.62833141  0.12462604  0.73322374    -0.39700
N1586       N  0.69457568  0.17541294  0.71078404    -0.37300
N1587       N  0.74457544  0.13840363  0.90803375    -0.38400
N1588       N  0.68453544  0.07650139  0.91993214    -0.40000
C1589       C  0.89360340  0.13489206  0.75535343    -0.05000
C1590       C  0.89889944  0.11573045  0.78931734     0.09200
C1591       C  0.87959071  0.11354588  0.82224027    -0.02400
C1592       C  0.85534726  0.13093941  0.82171086    -0.00600
C1593       C  0.85026532  0.15098342  0.78824099    -0.04200
C1594       C  0.86950455  0.15261467  0.75484690     0.02800
C1595       C  0.92530962  0.09854238  0.79156952     0.09600
C1596       C  0.88479687  0.09331972  0.85682518     0.35500
C1597       C  0.86524441  0.17340429  0.72065830     0.38900
C1598       C  0.94848638  0.11175373  0.81059767    -0.04600
C1599       C  0.97200482  0.09424085  0.81859838     0.02500
C1600       C  0.97239779  0.06343444  0.80771252    -0.04200
C1601       C  0.95009549  0.05082044  0.78580140    -0.00400
C1602       C  0.92659259  0.06840325  0.77760992    -0.03000
C1603       C  0.94774233  0.14314170  0.82314906     0.36300
C1604       C  0.95064705  0.01924047  0.77409850     0.39900
C1605       C  0.99573207  0.10777655  0.83844009     0.39000
C1606       C  0.90334100  0.05531237  0.75610557     0.35900
C1607       C  0.91317109  0.13641243  0.72106134     0.36600
C1608       C  0.83538155  0.12748687  0.85529243     0.39900
N1609       N  0.01476319  0.11867392  0.85393110    -0.38200
N1610       N  0.94714861  0.16820103  0.83308371    -0.39800
N1611       N  0.95122826  0.99401548  0.76497784    -0.37500
N1612       N  0.88475536  0.04496973  0.73880304    -0.39900
N1613       N  0.88899163  0.07713975  0.88430515    -0.39700
N1614       N  0.81946015  0.12468945  0.88206233    -0.37300
N1615       N  0.86192734  0.19003795  0.69340580    -0.38400
N1616       N  0.91847669  0.14815059  0.99490870    -0.40000
C1617       C  0.63665644  0.65528710  0.00861534    -0.05000
C1618       C  0.63951770  0.64173157  0.04814433     0.09200
C1619       C  0.65346215  0.63766048  0.68299254    -0.02400
C1620       C  0.67256998  0.66165504  0.68339710    -0.00600
C1621       C  0.67236018  0.68364959  0.65152565    -0.04200
C1622       C  0.65405128  0.67928664  0.99646833     0.02800
C1623       C  0.62200082  0.61497764  0.05899164     0.09600
C1624       C  0.65441393  0.61447259  0.71478146     0.35500
C1625       C  0.65047840  0.69332518  0.95606523     0.38900
C1626       C  0.62797280  0.58696446  0.04046771    -0.04600
C1627       C  0.60844534  0.56344257  0.04194728     0.02500
C1628       C  0.58292438  0.56762546  0.06262251    -0.04200
C1629       C  0.57791320  0.59480575  0.08422026    -0.00400
C1630       C  0.59759788  0.61839086  0.08268739    -0.03000
C1631       C  0.65390923  0.58283368  0.01848988     0.36300
C1632       C  0.54330544  0.59021340  0.69134107     0.39900
C1633       C  0.61439479  0.53520436  0.02102545     0.39000
C1634       C  0.58315219  0.63765768  0.69795400     0.35900
C1635       C  0.61605561  0.64403507  0.98002311     0.36600
C1636       C  0.69334902  0.66284842  0.71552885     0.39900
N1637       N  0.61920253  0.51283821  0.00399000    -0.38200
N1638       N  0.67462559  0.57964148  0.00102275    -0.39800
N1639       N  0.52262572  0.59213773  0.70928146    -0.37500
N1640       N  0.57880674  0.65860237  0.71839206    -0.39900
N1641       N  0.65531362  0.59585150  0.73999039    -0.39700
N1642       N  0.71007844  0.66388524  0.74089864    -0.37300
N1643       N  0.64758823  0.70448234  0.92382518    -0.38400
N1644       N  0.59976128  0.63483857  0.95719413    -0.40000
C1645       C  0.44176414  0.60382923  0.99198390    -0.05000
C1646       C  0.41601050  0.59036281  0.98376691     0.09200
C1647       C  0.41388861  0.55870365  0.98019373    -0.02400
C1648       C  0.43726505  0.54051781  0.98639363    -0.00600
C1649       C  0.46264479  0.55398724  0.99695320    -0.04200
C1650       C  0.46504660  0.58567912  0.99841155     0.02800
C1651       C  0.39095611  0.60967085  0.98053327     0.09600
C1652       C  0.38737407  0.54486310  0.97204159     0.35500
C1653       C  0.49160607  0.59952137  0.00644864     0.38900
C1654       C  0.38150339  0.61903193  0.94134149    -0.04600
C1655       C  0.35856239  0.63835950  0.93841078     0.02500
C1656       C  0.34401318  0.64734295  0.97488450    -0.04200
C1657       C  0.35432692  0.63857021  0.01429425    -0.00400
C1658       C  0.37767792  0.61992617  0.01693600    -0.03000
C1659       C  0.39567315  0.60880099  0.90406460     0.36300
C1660       C  0.34202987  0.64993250  0.05244666     0.39900
C1661       C  0.35062430  0.64928700  0.89771757     0.39000
C1662       C  0.38853080  0.61167175  0.05726560     0.35900
C1663       C  0.44394057  0.63636369  0.99535327     0.36600
C1664       C  0.43489233  0.50793781  0.98399804     0.39900
N1665       N  0.34481634  0.65829419  0.86515280    -0.38200
N1666       N  0.40709176  0.60034959  0.87456528    -0.39800
N1667       N  0.33235515  0.65913379  0.08291813    -0.37500
N1668       N  0.39751868  0.60520483  0.08925220    -0.39900
N1669       N  0.36617453  0.53386368  0.96571015    -0.39700
N1670       N  0.43300315  0.48194727  0.98213157    -0.37300
N1671       N  0.51291059  0.61036030  0.01251588    -0.38400
N1672       N  0.42405009  0.65005194  0.62621547    -0.40000
C1673       C  0.14851593  0.64635715  0.67030942    -0.05000
C1674       C  0.15177823  0.61324070  0.94786170     0.09200
C1675       C  0.17750483  0.59988718  0.93939024    -0.02400
C1676       C  0.20207799  0.61638458  0.94554798    -0.00600
C1677       C  0.20105951  0.64645582  0.96041120    -0.04200
C1678       C  0.17351101  0.66265415  0.67087117     0.02800
C1679       C  0.12573858  0.59684174  0.93756217     0.09600
C1680       C  0.17858926  0.56917339  0.92393965     0.35500
C1681       C  0.17373024  0.69371397  0.68496929     0.38900
C1682       C  0.10949226  0.60556542  0.60873247    -0.04600
C1683       C  0.08654800  0.58836029  0.59647310     0.02500
C1684       C  0.07513403  0.56621924  0.62364042    -0.04200
C1685       C  0.09033909  0.55924982  0.95489840    -0.00400
C1686       C  0.11400989  0.57601601  0.96589732    -0.03000
C1687       C  0.12120836  0.62796289  0.58056976     0.36300
C1688       C  0.07925244  0.53714830  0.98392467     0.39900
C1689       C  0.07511259  0.59341159  0.55546676     0.39000
C1690       C  0.12668681  0.57162822  0.00610397     0.35900
C1691       C  0.12291519  0.66104337  0.68158485     0.36600
C1692       C  0.22825561  0.60253674  0.93523990     0.39900
N1693       N  0.06627893  0.59733433  0.52256009    -0.38200
N1694       N  0.13047786  0.64593005  0.55828608    -0.39800
N1695       N  0.07059655  0.51967052  0.00747343    -0.37500
N1696       N  0.13693617  0.56829240  0.03815803    -0.39900
N1697       N  0.17941691  0.54461701  0.91186088    -0.39700
N1698       N  0.24912129  0.59142095  0.92712124    -0.37300
N1699       N  0.17391092  0.71845274  0.69639712    -0.38400
N1700       N  0.10247538  0.67277579  0.69048206    -0.40000
C1701       C  0.63147492  0.42228420  0.02814157    -0.05000
C1702       C  0.63012529  0.40376516  0.99270606     0.09200
C1703       C  0.60664106  0.40425944  0.96737467    -0.02400
C1704       C  0.58408861  0.42269845  0.97807837    -0.00600
C1705       C  0.58505538  0.44102724  0.01415026    -0.04200
C1706       C  0.60894623  0.44049186  0.03931434     0.02800
C1707       C  0.65377545  0.38382357  0.98218517     0.09600
C1708       C  0.60613996  0.38633523  0.92965533     0.35500
C1709       C  0.61109761  0.45944028  0.07595799     0.38900
C1710       C  0.65689072  0.35616155  0.00323299    -0.04600
C1711       C  0.68056676  0.33864498  0.99638278     0.02500
C1712       C  0.70103535  0.34852152  0.96782864    -0.04200
C1713       C  0.69707045  0.37541553  0.94495828    -0.00400
C1714       C  0.67365245  0.39323895  0.95264487    -0.03000
C1715       C  0.63559870  0.34566636  0.03178634     0.36300
C1716       C  0.71726474  0.38526214  0.91421773     0.39900
C1717       C  0.68337639  0.30995846  0.01772395     0.39000
C1718       C  0.67011899  0.42156821  0.93077098     0.35900
C1719       C  0.65670811  0.42355271  0.05200077     0.36600
C1720       C  0.55974884  0.42208180  0.95229797     0.39900
N1721       N  0.68570409  0.28701659  0.03455075    -0.38200
N1722       N  0.61858129  0.33712964  0.05439141    -0.39800
N1723       N  0.73316930  0.39309379  0.88938420    -0.37500
N1724       N  0.66712012  0.44418971  0.91341134    -0.39900
N1725       N  0.60609242  0.37227928  0.89934050    -0.39700
N1726       N  0.54040437  0.42144120  0.93157046    -0.37300
N1727       N  0.61292722  0.47448632  0.10522025    -0.38400
N1728       N  0.66872157  0.43155839  0.67515413    -0.40000
C1729       C  0.88517968  0.36629487  0.92388334    -0.05000
C1730       C  0.88130919  0.39763643  0.92801765     0.09200
C1731       C  0.85518729  0.40904126  0.93911201    -0.02400
C1732       C  0.83292765  0.38909777  0.94573490    -0.00600
C1733       C  0.83694773  0.35765194  0.94237416    -0.04200
C1734       C  0.86328671  0.34627597  0.93222183     0.02800
C1735       C  0.90476338  0.41856806  0.91940666     0.09600
C1736       C  0.85114142  0.44128896  0.94320160     0.35500
C1737       C  0.86782839  0.31403086  0.92911659     0.38900
C1738       C  0.90599715  0.43439495  0.88142721    -0.04600
C1739       C  0.92875776  0.45305082  0.87214312     0.02500
C1740       C  0.95088910  0.45442253  0.61029326    -0.04200
C1741       C  0.95340570  0.42870301  0.63587444    -0.00400
C1742       C  0.93106269  0.40842178  0.64020981    -0.03000
C1743       C  0.88414403  0.43063025  0.85130404     0.36300
C1744       C  0.97949577  0.42200413  0.65534959     0.39900
C1745       C  0.92907269  0.46989879  0.83337257     0.39000
C1746       C  0.93387874  0.38138630  0.66521969     0.35900
C1747       C  0.91147090  0.35473492  0.90942445     0.36600
C1748       C  0.80606897  0.40092438  0.95707236     0.39900
N1749       N  0.92922691  0.48320857  0.80236831    -0.38200
N1750       N  0.86670040  0.42743546  0.82740163    -0.39800
N1751       N  0.00035510  0.41650879  0.67065024    -0.37500
N1752       N  0.93616546  0.35968464  0.68490528    -0.39900
N1753       N  0.84773083  0.46700665  0.94631131    -0.39700
N1754       N  0.78458644  0.41016113  0.96609100    -0.37300
N1755       N  0.87155844  0.28831046  0.92699912    -0.38400
N1756       N  0.92609744  0.35712018  0.54539439    -0.40000
C1757       C  0.45451425  0.39298245  0.11432207    -0.05000
C1758       C  0.42665515  0.40138790  0.11050968     0.09200
C1759       C  0.41973175  0.43207176  0.10605847    -0.02400
C1760       C  0.44067967  0.45385311  0.10079759    -0.00600
C1761       C  0.46852337  0.44500339  0.10087086    -0.04200
C1762       C  0.47545122  0.41487020  0.10973805     0.02800
C1763       C  0.40513186  0.37764214  0.10495895     0.09600
C1764       C  0.39388581  0.43244602  0.72250458     0.35500
C1765       C  0.50414155  0.40614412  0.11185084     0.38900
C1766       C  0.40166046  0.35491701  0.75222527    -0.04600
C1767       C  0.38234101  0.33148557  0.75959820     0.02500
C1768       C  0.36497360  0.32120793  0.72704310    -0.04200
C1769       C  0.37743791  0.34690306  0.05803043    -0.00400
C1770       C  0.39599228  0.37087059  0.06448416    -0.03000
C1771       C  0.41982276  0.36478905  0.78514316     0.36300
C1772       C  0.36965616  0.33937131  0.01575958     0.39900
C1773       C  0.38079711  0.31809019  0.80079219     0.39000
C1774       C  0.40614400  0.38834460  0.02922176     0.35900
C1775       C  0.46164258  0.36155401  0.12021949     0.36600
C1776       C  0.43359141  0.48504289  0.09273615     0.39900
N1777       N  0.37958564  0.30749707  0.83371152    -0.38200
N1778       N  0.43430464  0.37263226  0.81144472    -0.39800
N1779       N  0.36358601  0.33349986  0.98196652    -0.37500
N1780       N  0.41411340  0.40242364  0.00121033    -0.39900
N1781       N  0.37280195  0.44053586  0.73514921    -0.39700
N1782       N  0.42856026  0.50117854  0.69335038    -0.37300
N1783       N  0.52701310  0.39913544  0.11371842    -0.38400
N1784       N  0.46728134  0.33645995  0.12496726    -0.40000
C1785       C  0.38483692  0.13047579  0.77158504    -0.05000
C1786       C  0.40941848  0.13392368  0.74835687     0.09200
C1787       C  0.41311895  0.15921668  0.72229032    -0.02400
C1788       C  0.39264760  0.18153899  0.72033104    -0.00600
C1789       C  0.36800233  0.17840350  0.74397728    -0.04200
C1790       C  0.36406774  0.15246287  0.76916971     0.02800
C1791       C  0.43185986  0.11131658  0.75256656     0.09600
C1792       C  0.43828409  0.16246916  0.69796926     0.35500
C1793       C  0.33854563  0.14791889  0.79218464     0.38900
C1794       C  0.42938091  0.08273393  0.73370695    -0.04600
C1795       C  0.44973730  0.06074256  0.74004831     0.02500
C1796       C  0.47315079  0.06768270  0.76402966    -0.04200
C1797       C  0.47596919  0.09656529  0.78193110    -0.00400
C1798       C  0.45519184  0.11820352  0.77668874    -0.03000
C1799       C  0.40561335  0.07584206  0.70834788     0.36300
C1800       C  0.50047896  0.10422818  0.80519296     0.39900
C1801       C  0.44570231  0.03045216  0.72412688     0.39000
C1802       C  0.45754375  0.14738691  0.79673251     0.35900
C1803       C  0.38115794  0.10440127  0.79847465     0.36600
C1804       C  0.39776098  0.20836921  0.69544821     0.39900
N1805       N  0.44234784  0.00619286  0.71184109    -0.38200
N1806       N  0.38662457  0.07036606  0.68818655    -0.39800
N1807       N  0.52009481  0.11042764  0.82350980    -0.37500
N1808       N  0.45940781  0.17068050  0.81270843    -0.39900
N1809       N  0.45840242  0.16511539  0.67869694    -0.39700
N1810       N  0.40189914  0.22980907  0.67571377    -0.37300
N1811       N  0.31823767  0.14410996  0.81062474    -0.38400
N1812       N  0.37835571  0.08350732  0.81975550    -0.40000
loop_ 
_geom_bond_atom_site_label_1 
_geom_bond_atom_site_label_2 
_geom_bond_distance 
_geom_bond_site_symmetry_2 
_ccdc_geom_bond_type 
In1           O3   2.243       .  S
In1           O6   2.247       .  S
In1           O8   2.246       .  S
In1           O9   2.254       .  S
In1          O10   2.266       .  S
In1          O13   2.243       .  S
In1        O1212   2.251       .  S
In1        O1220   2.224       .  S
C2            O8   1.256       .  A
C2           O10   1.259       .  A
C2          C132   1.465       .  S
O3         C1219   1.256       .  A
O4         In605   2.261       .  S
O4           C11   1.260       .  A
C5            O6   1.263       .  A
C5         O1220   1.259       .  A
C5          C560   1.487       .  S
C7            O9   1.261       .  A
C7           O13   1.262       .  A
C7          C581   1.499       .  S
C11         O607   1.256       .  A
C11         C141   1.461       .  S
O12        In605   2.222       .  S
O12         C609   1.260       .  A
In14         O16   2.238       .  S
In14         O25   2.249       .  S
In14         O19   2.260       .  S
In14         O21   2.248       .  S
In14         O22   2.249       .  S
In14         O23   2.258       .  S
In14         O26   2.247       .  S
In14        O621   2.251       .  S
C15          O21   1.259       .  A
C15          O23   1.259       .  A
C15          C54   1.466       .  S
O16         C628   1.257       .  A
O17       In1222   2.245   1_554  S
O17          C24   1.261       .  A
C18          O25   1.259       .  A
C18          O19   1.260       .  A
C18         C525   1.491       .  S
C20          O22   1.262       .  A
C20          O26   1.262       .  A
C20         C504   1.491       .  S
C24        O1224   1.258   1_554  A
C24          C63   1.454       .  S
In27         O29   2.261       .  S
In27         O30   2.247       .  S
In27         O38   2.252       .  S
In27         O32   2.257       .  S
In27         O34   2.259       .  S
In27         O35   2.262       .  S
In27         O36   2.250       .  S
In27         O39   2.255       .  S
C28          O34   1.259       .  A
C28          O36   1.258       .  A
C28         C719   1.465       .  S
O29          C37   1.258       .  A
O30          C37   1.260       .  A
C31          O38   1.262       .  A
C31          O32   1.261       .  A
C31         C448   1.501       .  S
C33          O35   1.260       .  A
C33          O39   1.260       .  A
C33         C469   1.496       .  S
C37         C106   1.466       .  S
In40         O42   2.212       .  S
In40         O43   2.256       .  S
In40         O51   2.205       .  S
In40         O45   2.260       .  S
In40         O47   2.262       .  S
In40         O48   2.246       .  S
In40         O49   2.202       .  S
In40         O52   2.210       .  S
C41          O47   1.270       .  A
C41          O49   1.263       .  A
C41         C497   1.501       .  S
O42          C50   1.262       .  A
O43          C50   1.268       .  A
C44          O51   1.260       .  A
C44          O45   1.268       .  A
C44         C441   1.476       .  S
C46          O48   1.268       .  A
C46          O52   1.263       .  A
C46         C553   1.478       .  S
C50         C420   1.480       .  S
In53         O55   2.225       .  S
In53         O56   2.250       .  S
In53         O64   2.240       .  S
In53         O58   2.254       .  S
In53         O60   2.243       .  S
In53         O61   2.240       .  S
In53         O62   2.260       .  S
In53         O65   2.255       .  S
C54          O60   1.259       .  A
C54          O62   1.261       .  A
O55          C63   1.258       .  A
O56          C63   1.259       .  A
C57          O64   1.257       .  A
C57          O58   1.261       .  A
C57         C385   1.494       .  S
C59          O61   1.259       .  A
C59          O65   1.262       .  A
C59         C357   1.491       .  S
In66         O68   2.268   1_556  S
In66         O69   2.251   1_556  S
In66         O77   2.230       .  S
In66         O71   2.260       .  S
In66         O74   2.242   1_556  S
In66         O75   2.254       .  S
In66         O78   2.242       .  S
In66       O1281   2.250       .  S
C67          O73   1.260       .  A
C67         O679   1.259       .  A
C67          C89   1.465       .  S
O68          C76   1.261       .  A
O69          C76   1.259       .  A
C70          O77   1.261       .  A
C70          O71   1.261       .  A
C70         C329   1.505       .  S
C72          O74   1.260       .  A
C72          O78   1.261   1_554  A
C72         C413   1.483       .  S
O73        In670   2.248       .  S
O75        C1275   1.259       .  A
C76          C80   1.470       .  S
In79         O81   2.257       .  S
In79         O82   2.252       .  S
In79         O90   2.240       .  S
In79         O84   2.257       .  S
In79         O86   2.253       .  S
In79         O87   2.229       .  S
In79         O88   2.271       .  S
In79         O91   2.246       .  S
C80          O86   1.257       .  A
C80          O88   1.259       .  A
O81          C89   1.260       .  A
O82          C89   1.258       .  A
C83          O90   1.262       .  A
C83          O84   1.261       .  A
C83         C301   1.493       .  S
C85          O87   1.259       .  A
C85          O91   1.263       .  A
C85         C273   1.486       .  S
In92         O94   2.206       .  S
In92         O95   2.236       .  S
In92        O103   2.208   1_455  S
In92         O97   2.261       .  S
In92         O99   2.258   1_545  S
In92        O100   2.243   1_545  S
In92        O101   2.195   1_545  S
In92        O104   2.192   1_445  S
C93          O99   1.271       .  A
C93         O101   1.261       .  A
C93         C245   1.489       .  S
O94         C102   1.264       .  A
O95         C102   1.267       .  A
C96         O103   1.261       .  A
C96          O97   1.268   1_655  A
C96         C392   1.482       .  S
C98         O100   1.268   1_655  A
C98         O104   1.261       .  A
C98         C280   1.481       .  S
C102        C224   1.476       .  S
In105       O107   2.237       .  S
In105       O108   2.248       .  S
In105       O116   2.240       .  S
In105       O110   2.273       .  S
In105       O112   2.241       .  S
In105       O113   2.238       .  S
In105       O114   2.269       .  S
In105       O117   2.265       .  S
C106        O112   1.256       .  A
C106        O114   1.262       .  A
O107        C115   1.260       .  A
O108        C115   1.262       .  A
C109        O116   1.256       .  A
C109        O110   1.262       .  A
C109        C252   1.492       .  S
C111        O113   1.258       .  A
C111        O117   1.262       .  A
C111        C189   1.498       .  S
C115       C1236   1.461       .  S
In118       O120   2.219       .  S
In118       O121   2.264   1_554  S
In118       O129   2.232       .  S
In118       O123   2.249       .  S
In118       O125   2.261   1_545  S
In118       O126   2.259   1_544  S
In118       O127   2.213   1_545  S
In118       O130   2.196   1_545  S
C119        O125   1.269       .  A
C119        O127   1.261       .  A
C119        C196   1.494       .  S
O120        C128   1.261       .  A
O121        C128   1.268   1_556  A
C122        O129   1.264       .  A
C122        O123   1.269       .  A
C122        C364   1.485       .  S
C124        O126   1.271       .  A
C124        O130   1.262   1_556  A
C124        C336   1.485       .  S
C128        C588   1.483   1_554  S
In131       O133   2.237       .  S
In131       O134   2.251       .  S
In131       O142   2.231       .  S
In131       O136   2.252       .  S
In131       O138   2.243       .  S
In131       O139   2.249       .  S
In131       O140   2.264       .  S
In131       O143   2.229       .  S
C132        O138   1.257       .  A
C132        O140   1.260       .  A
O133        C141   1.260       .  A
O134        C141   1.259       .  A
C135        O142   1.260       .  A
C135        O136   1.261       .  A
C135        C168   1.488       .  S
C137        O139   1.260       .  A
C137        O143   1.260       .  A
C137        C217   1.482       .  S
In144       O146   2.208   1_455  S
In144       O147   2.250   1_455  S
In144       O155   2.198       .  S
In144       O152   2.252       .  S
In144       O153   2.210   1_455  S
In144       O156   2.217       .  S
In144       O753   2.264       .  S
In144       O755   2.259   1_455  S
C145        O151   1.268       .  A
C145       O1361   1.263       .  A
C145        C532   1.486       .  S
O146        C154   1.265       .  A
O147        C154   1.270       .  A
C148        O149   1.270       .  A
C148       O1363   1.263       .  A
C148        C476   1.491       .  S
O149      In1352   2.258       .  S
C150        O152   1.269       .  A
C150        O156   1.263       .  A
C150        C161   1.479       .  S
O151      In1352   2.234   1_655  S
O153        C749   1.263       .  A
C154        C308   1.496       .  S
O155        C752   1.263       .  A
C157        C158   1.412       .  A
C157        C162   1.412       .  A
C157        C779   1.450       .  S
C158        C163   1.496       .  S
C158        C159   1.410       .  A
C159        C160   1.410       .  A
C159        C164   1.450       .  S
C160        C161   1.413       .  A
C160        C176   1.451       .  S
C161        C162   1.410       .  A
C162        C769   1.450       .  S
C163        C166   1.409       .  A
C163        C170   1.412       .  A
C164        N181   1.157       .  T
C165       C1370   1.449       .  S
C165        N183   1.157       .  T
C166        C167   1.410       .  A
C166        C171   1.450       .  S
C167        C168   1.417       .  A
C167        C173   1.452       .  S
C168        C169   1.416       .  A
C169        C170   1.411       .  A
C169        C172   1.452       .  S
C170        C174   1.451       .  S
C171        N178   1.157       .  T
C172        N179   1.158       .  T
C173        N177   1.158       .  T
C174        N180   1.157       .  T
C175       C1365   1.450       .  S
C175        N184   1.158       .  T
C176        N182   1.157       .  T
C185        C186   1.410       .  A
C185        C190   1.412       .  A
C185        C203   1.451       .  S
C186        C191   1.499       .  S
C186        C187   1.409       .  A
C187        C188   1.412       .  A
C187        C192   1.451       .  S
C188        C189   1.422       .  A
C188        C204   1.452       .  S
C189        C190   1.419       .  A
C190        C193   1.451       .  S
C191        C194   1.409       .  A
C191        C198   1.411       .  A
C192        N209   1.157       .  T
C193        N211   1.157       .  T
C194        C195   1.409       .  A
C194        C199   1.452       .  S
C195        C196   1.420       .  A
C195        C201   1.452   1_554  S
C196        C197   1.417       .  A
C197        C198   1.415       .  A
C197        C200   1.450       .  S
C198        C202   1.450       .  S
C199        N206   1.157       .  T
C200        N207   1.158       .  T
C201        N205   1.158       .  T
C202        N208   1.158       .  T
C203        N212   1.157       .  T
C204        N210   1.158       .  T
C213        C214   1.408       .  A
C213        C218   1.405       .  A
C213        C231   1.452       .  S
C214        C219   1.488       .  S
C214        C215   1.408       .  A
C215        C216   1.411       .  A
C215        C220   1.450       .  S
C216        C217   1.417       .  A
C216        C232   1.450       .  S
C217        C218   1.415       .  A
C218        C221   1.452       .  S
C219        C222   1.410       .  A
C219        C226   1.409       .  A
C220        N237   1.157       .  T
C221        N239   1.157       .  T
C222        C223   1.406       .  A
C222        C227   1.452       .  S
C223        C224   1.413       .  A
C223        C229   1.453       .  S
C224        C225   1.413       .  A
C225        C226   1.409       .  A
C225        C228   1.450       .  S
C226        C230   1.450       .  S
C227        N234   1.158       .  T
C228        N235   1.158       .  T
C229        N233   1.157       .  T
C230        N236   1.157       .  T
C231        N240   1.158       .  T
C232        N238   1.158       .  T
C241        C242   1.408       .  A
C241        C246   1.407       .  A
C241        C259   1.452       .  S
C242        C247   1.496       .  S
C242        C243   1.411       .  A
C243        C244   1.414       .  A
C243        C248   1.450       .  S
C244        C245   1.416       .  A
C244        C260   1.450       .  S
C245        C246   1.419       .  A
C246        C249   1.453       .  S
C247        C250   1.408       .  A
C247        C254   1.410       .  A
C248        N265   1.157       .  T
C249        N267   1.158       .  T
C250        C251   1.411       .  A
C250        C255   1.451       .  S
C251        C252   1.419       .  A
C251        C257   1.451       .  S
C252        C253   1.416       .  A
C253        C254   1.412       .  A
C253        C256   1.451       .  S
C254        C258   1.451       .  S
C255       N1470   1.157       .  T
C256        N263   1.157       .  T
C257        N261   1.158       .  T
C258        N264   1.158       .  T
C259        N268   1.157       .  T
C260        N266   1.158   1_565  T
N262        C859   1.157       .  T
C269        C270   1.407       .  A
C269        C274   1.408       .  A
C269        C287   1.451       .  S
C270        C275   1.488       .  S
C270        C271   1.410       .  A
C271        C272   1.409       .  A
C271        C276   1.452       .  S
C272        C273   1.416       .  A
C272        C288   1.451       .  S
C273        C274   1.419       .  A
C274        C277   1.451       .  S
C275        C278   1.407       .  A
C275        C282   1.410       .  A
C276        N293   1.158       .  T
C277        N295   1.158       .  T
C278        C279   1.404       .  A
C278        C283   1.452       .  S
C279        C280   1.417       .  A
C279        C285   1.453       .  S
C280        C281   1.414       .  A
C281        C282   1.410       .  A
C281        C284   1.451       .  S
C282        C286   1.449       .  S
C283        N290   1.157       .  T
C284        N291   1.157       .  T
C285        N289   1.158   1_655  T
C286        N292   1.158       .  T
C287        N296   1.157       .  T
C288        N294   1.157       .  T
C297        C298   1.409       .  A
C297        C302   1.409       .  A
C297        C315   1.452       .  S
C298        C303   1.498       .  S
C298        C299   1.410       .  A
C299        C300   1.414       .  A
C299        C304   1.450       .  S
C300        C301   1.419       .  A
C300        C316   1.451       .  S
C301        C302   1.417       .  A
C302        C305   1.451       .  S
C303        C306   1.410       .  A
C303        C310   1.408       .  A
C304        N925   1.158       .  T
C305        N323   1.158       .  T
C306        C307   1.415       .  A
C306        C311   1.450       .  S
C307        C308   1.419       .  A
C307        C313   1.450       .  S
C308        C309   1.420       .  A
C309        C310   1.408       .  A
C309        C312   1.452       .  S
C310        C314   1.452       .  S
C311        N318   1.158       .  T
C312        N319   1.158       .  T
C313        N317   1.158       .  T
C314        N320   1.157       .  T
C315        N324   1.157       .  T
C316        N322   1.157       .  T
N321       C1512   1.158       .  T
C325        C326   1.408       .  A
C325        C330   1.416       .  A
C325        C343   1.451       .  S
C326        C331   1.496       .  S
C326        C327   1.407       .  A
C327        C328   1.407       .  A
C327        C332   1.452   1_556  S
C328        C329   1.422       .  A
C328        C344   1.451   1_556  S
C329        C330   1.425       .  A
C330        C333   1.450       .  S
C331        C334   1.409       .  A
C331        C338   1.412       .  A
C332        N349   1.157       .  T
C333       N1559   1.158       .  T
C334        C335   1.408       .  A
C334        C339   1.452       .  S
C335        C336   1.417       .  A
C335        C341   1.452   1_556  S
C336        C337   1.414       .  A
C337        C338   1.413       .  A
C337        C340   1.451       .  S
C338        C342   1.450       .  S
C339        N346   1.157   1_556  T
C340        N347   1.157       .  T
C341        N345   1.158       .  T
C342        N348   1.158       .  T
C343        N352   1.157       .  T
C344        N350   1.157       .  T
N351        C937   1.158       .  T
C353        C354   1.411       .  A
C353        C358   1.413       .  A
C353        C371   1.450       .  S
C354        C359   1.499       .  S
C354        C355   1.411       .  A
C355        C356   1.411       .  A
C355        C360   1.452       .  S
C356        C357   1.418       .  A
C356        C372   1.452       .  S
C357        C358   1.415       .  A
C358        C361   1.451       .  S
C359        C362   1.411       .  A
C359        C366   1.411       .  A
C360        N377   1.157   1_554  T
C361        N379   1.157       .  T
C362        C363   1.412       .  A
C362        C367   1.450       .  S
C363        C364   1.411       .  A
C363        C369   1.449       .  S
C364        C365   1.414       .  A
C365        C366   1.413       .  A
C365        C368   1.450       .  S
C366        C370   1.450       .  S
C367        N374   1.157       .  T
C368        N375   1.157   1_545  T
C369        N373   1.158       .  T
C370        N376   1.158       .  T
C371        N380   1.157       .  T
C372        N378   1.158       .  T
C381        C382   1.407       .  A
C381        C386   1.411       .  A
C381        C399   1.451       .  S
C382        C387   1.494       .  S
C382        C383   1.410       .  A
C383        C384   1.410       .  A
C383        C388   1.452       .  S
C384        C385   1.418       .  A
C384        C400   1.451       .  S
C385        C386   1.421       .  A
C386        C389   1.451       .  S
C387        C390   1.410       .  A
C387        C394   1.411       .  A
C388        N405   1.157       .  T
C389        N407   1.157       .  T
C390        C391   1.408       .  A
C390        C395   1.451       .  S
C391        C392   1.412       .  A
C391        C397   1.450       .  S
C392        C393   1.414       .  A
C393        C394   1.413       .  A
C393        C396   1.450       .  S
C394        C398   1.449       .  S
C395        N402   1.157       .  T
C396        N403   1.157       .  T
C397        N401   1.158   1_655  T
C398        N404   1.158       .  T
C399       N1616   1.157   1_554  T
C400        N406   1.158       .  T
N408       C1003   1.157       .  T
C409        C410   1.413       .  A
C409        C414   1.409       .  A
C409        C427   1.453       .  S
C410        C415   1.495       .  S
C410       C1015   1.409       .  A
C411        C412   1.412       .  A
C411       C1618   1.410       .  A
C411        C416   1.450       .  S
C412        C413   1.416       .  A
C412        C428   1.452       .  S
C413       C1622   1.412   1_554  A
C414       C1017   1.415       .  A
C414        C417   1.451       .  S
C415        C418   1.409       .  A
C415        C422   1.412       .  A
C416        N433   1.157       .  T
C417        N435   1.158       .  T
C418        C419   1.407       .  A
C418        C423   1.451       .  S
C419        C420   1.414       .  A
C419        C425   1.451       .  S
C420        C421   1.412       .  A
C421        C422   1.413       .  A
C421       C1028   1.450       .  S
C422       C1030   1.450       .  S
C423        N430   1.157       .  T
C424       C1629   1.450       .  S
C424        N431   1.157       .  T
C425        N429   1.157       .  T
C426       C1630   1.450       .  S
C426        N432   1.158       .  T
C427        N436   1.158       .  T
C428        N434   1.158       .  T
C437        C438   1.412       .  A
C437        C442   1.410       .  A
C437        C455   1.450       .  S
C438        C443   1.499       .  S
C438        C439   1.412       .  A
C439        C440   1.412       .  A
C439        C444   1.450       .  S
C440        C441   1.412       .  A
C440        C456   1.452       .  S
C441        C442   1.410       .  A
C442        C445   1.451       .  S
C443        C446   1.407       .  A
C443        C450   1.409       .  A
C444        N461   1.157       .  T
C445        N463   1.157       .  T
C446        C447   1.414       .  A
C446        C451   1.450       .  S
C447        C448   1.422       .  A
C447        C453   1.450       .  S
C448        C449   1.420       .  A
C449        C450   1.412       .  A
C449        C452   1.451       .  S
C450        C454   1.451       .  S
C451        N458   1.157       .  T
C452        N459   1.158       .  T
C453        N457   1.157       .  T
C454        N460   1.157       .  T
C455       N1068   1.157       .  T
C456        N462   1.157       .  T
N464       C1663   1.157       .  T
C465        C470   1.411       .  A
C465       C1674   1.408       .  A
C465        C483   1.451       .  S
C466        C471   1.499       .  S
C466        C467   1.411       .  A
C466       C1069   1.409       .  A
C467        C468   1.413       .  A
C467        C472   1.451       .  S
C468        C469   1.418       .  A
C468        C484   1.451       .  S
C469       C1074   1.418       .  A
C470       C1677   1.419       .  A
C470        C473   1.451       .  S
C471        C478   1.411       .  A
C471       C1078   1.409       .  A
C472        N489   1.157       .  T
C473        N491   1.158   1_556  T
C474        C475   1.407       .  A
C474       C1679   1.408       .  A
C474        C479   1.451       .  S
C475        C476   1.419       .  A
C475        C481   1.453       .  S
C476       C1685   1.417       .  A
C477        C478   1.415       .  A
C477       C1080   1.416       .  A
C477        C480   1.450       .  S
C478        C482   1.449       .  S
C479        N486   1.157       .  T
C480        N487   1.157       .  T
C481        N485   1.158       .  T
C482        N488   1.158       .  T
C483        N492   1.157       .  T
C484        N490   1.157       .  T
C493        C494   1.406       .  A
C493        C498   1.408       .  A
C493        C511   1.453       .  S
C494        C499   1.497       .  S
C494        C495   1.410       .  A
C495        C496   1.416       .  A
C495        C500   1.450       .  S
C496        C497   1.421       .  A
C496        C512   1.451       .  S
C497        C498   1.424       .  A
C498        C501   1.453       .  S
C499        C502   1.410       .  A
C499        C506   1.410       .  A
C500        N517   1.158       .  T
C501        N519   1.158       .  T
C502        C503   1.412       .  A
C502        C507   1.451       .  S
C503        C504   1.416       .  A
C503        C509   1.451       .  S
C504        C505   1.417       .  A
C505        C506   1.412       .  A
C505        C508   1.451       .  S
C506        C510   1.450       .  S
C507        N514   1.157       .  T
C508        N515   1.157       .  T
C509        N513   1.158       .  T
C510        N516   1.158       .  T
C511       N1124   1.157       .  T
C512        N518   1.157       .  T
N520       C1719   1.157       .  T
C521        C522   1.412       .  A
C521        C526   1.413       .  A
C521        C539   1.451       .  S
C522        C527   1.501       .  S
C522        C523   1.411       .  A
C523        C524   1.412       .  A
C523        C528   1.451       .  S
C524        C525   1.416       .  A
C524        C540   1.452       .  S
C525        C526   1.416       .  A
C526        C529   1.451       .  S
C527        C530   1.411       .  A
C527       C1138   1.413       .  A
C528        N545   1.158       .  T
C529        N547   1.158       .  T
C530        C531   1.410       .  A
C530        C535   1.451       .  S
C531       C1136   1.415       .  A
C531        C537   1.452       .  S
C532        C533   1.416       .  A
C532       C1739   1.419       .  A
C533        C534   1.409       .  A
C533        C536   1.451       .  S
C534       C1735   1.410       .  A
C534        C538   1.452       .  S
C535        N542   1.157       .  T
C536        N543   1.157       .  T
C537        N541   1.158       .  T
C538        N544   1.157   1_556  T
C539       N1152   1.157       .  T
C540        N546   1.158       .  T
N548       C1747   1.157       .  T
C549        C550   1.411       .  A
C549        C554   1.407       .  A
C549        C567   1.452       .  S
C550        C555   1.493       .  S
C550        C551   1.411       .  A
C551        C552   1.412       .  A
C551       C1160   1.450       .  S
C552        C553   1.413       .  A
C552        C568   1.451       .  S
C553        C554   1.412       .  A
C554        C557   1.452       .  S
C555        C562   1.407       .  A
C555       C1162   1.407       .  A
C556       C1759   1.450       .  S
C556        N573   1.157       .  T
C557        N575   1.158       .  T
C558        C559   1.411       .  A
C558       C1763   1.408       .  A
C558        C563   1.450       .  S
C559        C560   1.417       .  A
C559        C565   1.451       .  S
C560       C1769   1.417       .  A
C561        C562   1.408       .  A
C561       C1164   1.422       .  A
C561        C564   1.452       .  S
C562        C566   1.453       .  S
C563        N570   1.157       .  T
C564        N571   1.158       .  T
C565        N569   1.158       .  T
C566        N572   1.157       .  T
C567        N576   1.157       .  T
C568       N1178   1.157       .  T
N574       C1776   1.158       .  T
C577        C578   1.411       .  A
C577        C582   1.410       .  A
C577        C595   1.452       .  S
C578        C583   1.499   1_554  S
C578        C579   1.409   1_554  A
C579        C580   1.415       .  A
C579        C584   1.450       .  S
C580        C581   1.422   1_556  A
C580        C596   1.451       .  S
C581        C582   1.419       .  A
C582        C585   1.451       .  S
C583        C586   1.411       .  A
C583        C590   1.411       .  A
C584        N601   1.158       .  T
C585        N603   1.158       .  T
C586        C587   1.413       .  A
C586        C591   1.451       .  S
C587        C588   1.414       .  A
C587        C593   1.450       .  S
C588        C589   1.412       .  A
C589        C590   1.411       .  A
C589        C592   1.451   1_556  S
C590        C594   1.449   1_556  S
C591        N598   1.157       .  T
C592        N599   1.157       .  T
C593        N597   1.158       .  T
C594        N600   1.158       .  T
C595        N604   1.157       .  T
C596        N602   1.158       .  T
In605       O607   2.238       .  S
In605       O610   2.253       .  S
In605       O612   2.251       .  S
In605       O613   2.242       .  S
In605       O614   2.272       .  S
In605       O617   2.253       .  S
C606        O612   1.255       .  A
C606        O614   1.259       .  A
C606        C736   1.468       .  S
O608      In1209   2.255       .  S
O608        C615   1.260       .  A
C609        O610   1.264       .  A
C609       C1164   1.496       .  S
C611        O613   1.259       .  A
C611        O617   1.262       .  A
C611       C1185   1.487       .  S
C615       O1211   1.258       .  A
C615        C745   1.461       .  S
O616      In1209   2.226       .  S
O616       C1213   1.256       .  A
In618       O620   2.247       .  S
In618      O1225   2.260       .  S
In618       O629   2.238       .  S
In618       O623   2.249       .  S
In618       O625   2.238       .  S
In618       O626   2.253       .  S
In618       O627   2.235       .  S
In618       O630   2.249       .  S
C619        O625   1.262       .  A
C619        O627   1.260       .  A
C619        C658   1.458       .  S
O620       C1232   1.255       .  A
O621        C628   1.260       .  A
C622        O629   1.260       .  A
C622        O623   1.261       .  A
C622       C1129   1.489       .  S
C624        O626   1.262       .  A
C624        O630   1.259       .  A
C624       C1108   1.492       .  S
C628        C667   1.458       .  S
In631       O633   2.258       .  S
In631       O634   2.248       .  S
In631       O642   2.260       .  S
In631       O636   2.241       .  S
In631       O638   2.259       .  S
In631       O639   2.252       .  S
In631       O640   2.243       .  S
In631       O643   2.240       .  S
C632        O638   1.261       .  A
C632        O640   1.258       .  A
C632       C1323   1.464       .  S
O633        C641   1.260       .  A
O634        C641   1.260       .  A
C635        O642   1.263       .  A
C635        O636   1.260       .  A
C635       C1052   1.496       .  S
C637        O639   1.261       .  A
C637        O643   1.260       .  A
C637       C1073   1.484       .  S
C641        C710   1.467       .  S
In644       O646   2.221       .  S
In644       O647   2.247       .  S
In644       O655   2.199       .  S
In644       O649   2.267       .  S
In644       O651   2.262       .  S
In644       O652   2.233       .  S
In644       O653   2.187       .  S
In644       O656   2.218       .  S
C645        O651   1.275       .  A
C645        O653   1.264       .  A
C645       C1101   1.490       .  S
O646        C654   1.266       .  A
O647        C654   1.270       .  A
C648        O655   1.262       .  A
C648        O649   1.273       .  A
C648       C1045   1.486       .  S
C650        O652   1.270       .  A
C650        O656   1.266       .  A
C650       C1157   1.479       .  S
C654       C1024   1.488       .  S
In657       O659   2.238       .  S
In657       O660   2.244       .  S
In657       O668   2.249       .  S
In657       O662   2.243       .  S
In657       O664   2.239       .  S
In657       O665   2.244       .  S
In657       O666   2.244       .  S
In657       O669   2.251       .  S
C658        O664   1.259       .  A
C658        O666   1.260       .  A
O659        C667   1.260       .  A
O660        C667   1.258       .  A
C661        O668   1.259       .  A
C661        O662   1.260       .  A
C661        C989   1.489       .  S
C663        O665   1.260       .  A
C663        O669   1.260       .  A
C663        C961   1.489       .  S
In670       O672   2.254       .  S
In670       O673   2.259       .  S
In670       O681   2.241       .  S
In670       O675   2.252       .  S
In670       O678   2.244       .  S
In670       O679   2.249       .  S
In670       O682   2.245       .  S
C671        O677   1.261       .  A
C671       O1283   1.260       .  A
C671        C693   1.463       .  S
O672        C680   1.259       .  A
O673        C680   1.259       .  A
C674        O681   1.260       .  A
C674        O675   1.259       .  A
C674        C933   1.495       .  S
C676        O678   1.260       .  A
C676        O682   1.261       .  A
C676       C1017   1.487       .  S
O677      In1274   2.245       .  S
C680        C684   1.468       .  S
In683       O685   2.251       .  S
In683       O686   2.251       .  S
In683       O694   2.230       .  S
In683       O688   2.255       .  S
In683       O690   2.260       .  S
In683       O691   2.236       .  S
In683       O692   2.254       .  S
In683       O695   2.238       .  S
C684        O690   1.259       .  A
C684        O692   1.258       .  A
O685        C693   1.259       .  A
O686        C693   1.258       .  A
C687        O694   1.262       .  A
C687        O688   1.262       .  A
C687        C905   1.495       .  S
C689        O691   1.259       .  A
C689        O695   1.262       .  A
C689        C877   1.482       .  S
In696       O698   2.206       .  S
In696       O699   2.252       .  S
In696       O707   2.212   1_455  S
In696       O701   2.261       .  S
In696       O703   2.251   1_545  S
In696       O704   2.251   1_545  S
In696       O705   2.201   1_545  S
In696       O708   2.197   1_445  S
C697        O703   1.269       .  A
C697        O705   1.261       .  A
C697        C849   1.487       .  S
O698        C706   1.263       .  A
O699        C706   1.267       .  A
C700        O707   1.262       .  A
C700        O701   1.267   1_655  A
C700        C996   1.483       .  S
C702        O704   1.267   1_655  A
C702        O708   1.261       .  A
C702        C884   1.484       .  S
C706        C828   1.479       .  S
In709       O711   2.247       .  S
In709       O712   2.261       .  S
In709       O720   2.234       .  S
In709       O714   2.280       .  S
In709       O716   2.249       .  S
In709       O717   2.242       .  S
In709       O718   2.261       .  S
In709       O721   2.255       .  S
C710        O716   1.258       .  A
C710        O718   1.261       .  A
O711        C719   1.258       .  A
O712        C719   1.260       .  A
C713        O720   1.256       .  A
C713        O714   1.262       .  A
C713        C856   1.497       .  S
C715        O717   1.260       .  A
C715        O721   1.261       .  A
C715        C793   1.496       .  S
In722       O724   2.218       .  S
In722       O725   2.262       .  S
In722       O733   2.214       .  S
In722       O727   2.254       .  S
In722       O729   2.248   1_545  S
In722       O730   2.267   1_545  S
In722       O731   2.216   1_545  S
In722       O734   2.194   1_545  S
C723        O729   1.268       .  A
C723        O731   1.262       .  A
C723        C800   1.496       .  S
O724        C732   1.263       .  A
O725        C732   1.269       .  A
C726        O733   1.263       .  A
C726        O727   1.268       .  A
C726        C968   1.483       .  S
C728        O730   1.271       .  A
C728        O734   1.261       .  A
C728        C940   1.488       .  S
C732       C1192   1.491       .  S
In735       O737   2.232       .  S
In735       O738   2.249       .  S
In735       O746   2.245       .  S
In735       O740   2.243       .  S
In735       O742   2.248       .  S
In735       O743   2.253       .  S
In735       O744   2.260       .  S
In735       O747   2.234       .  S
C736        O742   1.260       .  A
C736        O744   1.260       .  A
O737        C745   1.260       .  A
O738        C745   1.261       .  A
C739        O746   1.259       .  A
C739        O740   1.260       .  A
C739        C772   1.484       .  S
C741        O743   1.258       .  A
C741        O747   1.260       .  A
C741        C821   1.483       .  S
In748       O750   2.204   1_455  S
In748       O751   2.252       .  S
In748       O759   2.201       .  S
In748      O1357   2.256       .  S
In748      O1359   2.253   1_455  S
In748       O756   2.251       .  S
In748       O757   2.200   1_455  S
In748       O760   2.207       .  S
C749        O755   1.271       .  A
C749       C1136   1.488       .  S
O750        C758   1.262       .  A
O751        C758   1.268   1_455  A
C752        O753   1.272       .  A
C752       C1080   1.493       .  S
C754        O756   1.267       .  A
C754        O760   1.262       .  A
C754        C765   1.478       .  S
O757       C1353   1.261       .  A
C758        C912   1.490       .  S
O759       C1356   1.261       .  A
C761        C762   1.413       .  A
C761        C766   1.413       .  A
C761       C1383   1.449       .  S
C762        C767   1.496       .  S
C762        C763   1.412       .  A
C763        C764   1.407       .  A
C763        C768   1.451       .  S
C764        C765   1.412       .  A
C764        C780   1.453       .  S
C765        C766   1.411       .  A
C766       C1373   1.450       .  S
C767        C770   1.411       .  A
C767        C774   1.411       .  A
C768        N785   1.157       .  T
C769        N787   1.157       .  T
C770        C771   1.412       .  A
C770        C775   1.450       .  S
C771        C772   1.415       .  A
C771        C777   1.451       .  S
C772        C773   1.414       .  A
C773        C774   1.408       .  A
C773        C776   1.452       .  S
C774        C778   1.451       .  S
C775        N782   1.157       .  T
C776        N783   1.157       .  T
C777        N781   1.158       .  T
C778        N784   1.157       .  T
C779        N788   1.157       .  T
C780        N786   1.158       .  T
C789        C790   1.409       .  A
C789        C794   1.413       .  A
C789        C807   1.451       .  S
C790        C795   1.497       .  S
C790        C791   1.409       .  A
C791        C792   1.411       .  A
C791        C796   1.451       .  S
C792        C793   1.419       .  A
C792        C808   1.452       .  S
C793        C794   1.419       .  A
C794        C797   1.450       .  S
C795        C798   1.408       .  A
C795        C802   1.410       .  A
C796        N813   1.158       .  T
C797        N815   1.158       .  T
C798        C799   1.410       .  A
C798        C803   1.452       .  S
C799        C800   1.421       .  A
C799        C805   1.452       .  S
C800        C801   1.418       .  A
C801        C802   1.413       .  A
C801        C804   1.450       .  S
C802        C806   1.450       .  S
C803        N810   1.158       .  T
C804        N811   1.158       .  T
C805        N809   1.158       .  T
C806        N812   1.158       .  T
C807        N816   1.157       .  T
C808        N814   1.157       .  T
C817        C818   1.409       .  A
C817        C822   1.406       .  A
C817        C835   1.451       .  S
C818        C823   1.491       .  S
C818        C819   1.408       .  A
C819        C820   1.412       .  A
C819        C824   1.450       .  S
C820        C821   1.417       .  A
C820        C836   1.450       .  S
C821        C822   1.414       .  A
C822        C825   1.452       .  S
C823        C826   1.411       .  A
C823        C830   1.410       .  A
C824        N841   1.157       .  T
C825        N843   1.158       .  T
C826        C827   1.406       .  A
C826        C831   1.452       .  S
C827        C828   1.412       .  A
C827        C833   1.452       .  S
C828        C829   1.412       .  A
C829        C830   1.411       .  A
C829        C832   1.449       .  S
C830        C834   1.449       .  S
C831        N838   1.157       .  T
C832        N839   1.157       .  T
C833        N837   1.157       .  T
C834        N840   1.157       .  T
C835        N844   1.157       .  T
C836        N842   1.158       .  T
C845        C846   1.408       .  A
C845        C850   1.407       .  A
C845        C863   1.452       .  S
C846        C851   1.495       .  S
C846        C847   1.411       .  A
C847        C848   1.413       .  A
C847        C852   1.450       .  S
C848        C849   1.416       .  A
C848        C864   1.451       .  S
C849        C850   1.418       .  A
C850        C853   1.452       .  S
C851        C854   1.406       .  A
C851        C858   1.410       .  A
C852        N869   1.158       .  T
C853        N871   1.158       .  T
C854        C855   1.410       .  A
C854        C859   1.452       .  S
C855        C856   1.421       .  A
C855        C861   1.451       .  S
C856        C857   1.419       .  A
C857        C858   1.413       .  A
C857        C860   1.450       .  S
C858        C862   1.451       .  S
C860        N867   1.157       .  T
C861        N865   1.158       .  T
C862        N868   1.158       .  T
C863        N872   1.157       .  T
C864        N870   1.158   1_565  T
N866       C1463   1.157       .  T
C873        C874   1.410       .  A
C873        C878   1.409       .  A
C873        C891   1.451       .  S
C874        C879   1.492       .  S
C874        C875   1.411       .  A
C875        C876   1.408       .  A
C875        C880   1.451       .  S
C876        C877   1.413       .  A
C876        C892   1.452       .  S
C877        C878   1.416       .  A
C878        C881   1.451       .  S
C879        C882   1.409       .  A
C879        C886   1.411       .  A
C880        N897   1.158       .  T
C881        N899   1.158       .  T
C882        C883   1.405       .  A
C882        C887   1.452       .  S
C883        C884   1.417       .  A
C883        C889   1.453       .  S
C884        C885   1.414       .  A
C885        C886   1.411       .  A
C885        C888   1.450       .  S
C886        C890   1.450       .  S
C887        N894   1.157       .  T
C888        N895   1.157       .  T
C889        N893   1.158   1_655  T
C890        N896   1.158       .  T
C891        N900   1.157       .  T
C892        N898   1.157       .  T
C901        C902   1.409       .  A
C901        C906   1.408       .  A
C901        C919   1.452       .  S
C902        C907   1.496       .  S
C902        C903   1.410       .  A
C903        C904   1.414       .  A
C903        C908   1.451       .  S
C904        C905   1.421       .  A
C904        C920   1.451       .  S
C905        C906   1.418       .  A
C906        C909   1.451       .  S
C907        C910   1.411       .  A
C907        C914   1.409       .  A
C908       N1529   1.158       .  T
C909        N927   1.158       .  T
C910        C911   1.414       .  A
C910        C915   1.450       .  S
C911        C912   1.417       .  A
C911        C917   1.450       .  S
C912        C913   1.418       .  A
C913        C914   1.406       .  A
C913        C916   1.452       .  S
C914        C918   1.452       .  S
C915        N922   1.158       .  T
C916        N923   1.158       .  T
C917        N921   1.158       .  T
C918        N924   1.157       .  T
C919        N928   1.157       .  T
C920        N926   1.157       .  T
C929        C930   1.408       .  A
C929        C934   1.413       .  A
C929        C947   1.451       .  S
C930        C935   1.493       .  S
C930        C931   1.409       .  A
C931        C932   1.408       .  A
C931        C936   1.452       .  S
C932        C933   1.418       .  A
C932        C948   1.451       .  S
C933        C934   1.421       .  A
C934        C937   1.451       .  S
C935        C938   1.407       .  A
C935        C942   1.411       .  A
C936        N953   1.158       .  T
C938        C939   1.406       .  A
C938        C943   1.452       .  S
C939        C940   1.418       .  A
C939        C945   1.452       .  S
C940        C941   1.416       .  A
C941        C942   1.414       .  A
C941        C944   1.450       .  S
C942        C946   1.450       .  S
C943        N950   1.157       .  T
C944        N951   1.157       .  T
C945        N949   1.158       .  T
C946        N952   1.158       .  T
C947        N956   1.157       .  T
C948        N954   1.157       .  T
N955       C1541   1.158       .  T
C957        C958   1.410       .  A
C957        C962   1.412       .  A
C957        C975   1.450       .  S
C958        C963   1.497       .  S
C958        C959   1.411       .  A
C959        C960   1.410       .  A
C959        C964   1.452       .  S
C960        C961   1.416       .  A
C960        C976   1.452       .  S
C961        C962   1.416       .  A
C962        C965   1.451       .  S
C963        C966   1.413       .  A
C963        C970   1.410       .  A
C964        N981   1.157       .  T
C965        N983   1.157       .  T
C966        C967   1.412       .  A
C966        C971   1.450       .  S
C967        C968   1.412       .  A
C967        C973   1.449       .  S
C968        C969   1.413       .  A
C969        C970   1.409       .  A
C969        C972   1.451       .  S
C970        C974   1.450       .  S
C971        N978   1.157       .  T
C972        N979   1.157   1_545  T
C973        N977   1.158       .  T
C974        N980   1.158       .  T
C975        N984   1.157       .  T
C976        N982   1.158       .  T
C985        C986   1.408       .  A
C985        C990   1.411       .  A
C985       C1003   1.450       .  S
C986        C991   1.494       .  S
C986        C987   1.410       .  A
C987        C988   1.409       .  A
C987        C992   1.452       .  S
C988        C989   1.416       .  A
C988       C1004   1.452       .  S
C989        C990   1.418       .  A
C990        C993   1.451       .  S
C991        C994   1.410       .  A
C991        C998   1.410       .  A
C992       N1009   1.157       .  T
C993       N1011   1.157       .  T
C994        C995   1.408       .  A
C994        C999   1.451       .  S
C995        C996   1.413       .  A
C995       C1001   1.451       .  S
C996        C997   1.414       .  A
C997        C998   1.412       .  A
C997       C1000   1.450       .  S
C998       C1002   1.450       .  S
C999       N1006   1.157       .  T
C1000      N1007   1.157       .  T
C1001      N1005   1.158   1_655  T
C1002      N1008   1.158       .  T
C1004      N1010   1.158       .  T
N1012      C1607   1.157       .  T
C1013      C1014   1.411       .  A
C1013      C1018   1.410       .  A
C1013      C1031   1.451       .  S
C1014      C1019   1.493       .  S
C1014      C1619   1.409       .  A
C1015      C1016   1.411       .  A
C1015      C1020   1.450       .  S
C1016      C1017   1.417       .  A
C1016      C1032   1.451       .  S
C1018      C1621   1.415       .  A
C1018      C1021   1.451       .  S
C1019      C1022   1.407       .  A
C1019      C1026   1.410       .  A
C1020      N1037   1.157       .  T
C1021      N1039   1.158       .  T
C1022      C1023   1.409       .  A
C1022      C1027   1.452       .  S
C1023      C1024   1.417       .  A
C1023      C1029   1.450       .  S
C1024      C1025   1.415       .  A
C1025      C1026   1.413       .  A
C1025      C1632   1.450       .  S
C1026      C1634   1.451       .  S
C1027      N1034   1.157       .  T
C1028      N1035   1.157       .  T
C1029      N1033   1.158       .  T
C1030      N1036   1.158       .  T
C1031      N1040   1.157       .  T
C1032      N1038   1.157       .  T
C1041      C1042   1.410       .  A
C1041      C1046   1.409       .  A
C1041      C1059   1.452       .  S
C1042      C1047   1.499       .  S
C1042      C1043   1.412       .  A
C1043      C1044   1.416       .  A
C1043      C1048   1.450       .  S
C1044      C1045   1.415       .  A
C1044      C1060   1.450       .  S
C1045      C1046   1.414       .  A
C1046      C1049   1.451       .  S
C1047      C1050   1.409       .  A
C1047      C1054   1.410       .  A
C1048      N1065   1.157       .  T
C1049      N1067   1.157       .  T
C1050      C1051   1.413       .  A
C1050      C1055   1.449       .  S
C1051      C1052   1.420       .  A
C1051      C1057   1.452       .  S
C1052      C1053   1.418       .  A
C1053      C1054   1.412       .  A
C1053      C1056   1.450       .  S
C1054      C1058   1.451       .  S
C1055      N1062   1.157       .  T
C1056      N1063   1.158       .  T
C1057      N1061   1.158       .  T
C1058      N1064   1.157       .  T
C1059      N1672   1.157       .  T
C1060      N1066   1.157       .  T
C1069      C1074   1.412       .  A
C1069      C1087   1.451       .  S
C1070      C1075   1.494       .  S
C1070      C1673   1.409       .  A
C1070      C1071   1.411       .  A
C1071      C1072   1.410       .  A
C1071      C1076   1.451       .  S
C1072      C1073   1.414       .  A
C1072      C1088   1.452       .  S
C1073      C1678   1.414       .  A
C1074      C1077   1.451       .  S
C1075      C1682   1.408       .  A
C1075      C1082   1.409       .  A
C1076      N1093   1.157       .  T
C1077      N1095   1.157       .  T
C1078      C1079   1.410       .  A
C1078      C1083   1.452       .  S
C1079      C1080   1.419       .  A
C1079      C1085   1.452       .  S
C1081      C1684   1.418       .  A
C1081      C1082   1.414       .  A
C1081      C1084   1.451       .  S
C1082      C1086   1.450       .  S
C1083      N1090   1.157       .  T
C1084      N1091   1.157       .  T
C1085      N1089   1.158       .  T
C1086      N1092   1.158       .  T
C1087      N1096   1.157       .  T
C1088      N1094   1.157       .  T
C1097      C1098   1.408       .  A
C1097      C1102   1.407       .  A
C1097      C1115   1.452       .  S
C1098      C1103   1.498       .  S
C1098      C1099   1.412       .  A
C1099      C1100   1.416       .  A
C1099      C1104   1.449       .  S
C1100      C1101   1.415       .  A
C1100      C1116   1.450       .  S
C1101      C1102   1.419       .  A
C1102      C1105   1.453       .  S
C1103      C1106   1.411       .  A
C1103      C1110   1.410       .  A
C1104      N1121   1.157       .  T
C1105      N1123   1.158       .  T
C1106      C1107   1.412       .  A
C1106      C1111   1.450       .  S
C1107      C1108   1.416       .  A
C1107      C1113   1.451       .  S
C1108      C1109   1.418       .  A
C1109      C1110   1.412       .  A
C1109      C1112   1.451       .  S
C1110      C1114   1.451       .  S
C1111      N1118   1.157       .  T
C1112      N1119   1.157       .  T
C1113      N1117   1.158       .  T
C1114      N1120   1.158       .  T
C1115      N1728   1.157       .  T
C1116      N1122   1.157       .  T
C1125      C1126   1.410       .  A
C1125      C1130   1.411       .  A
C1125      C1143   1.451       .  S
C1126      C1131   1.494       .  S
C1126      C1127   1.409       .  A
C1127      C1128   1.410       .  A
C1127      C1132   1.451       .  S
C1128      C1129   1.417       .  A
C1128      C1144   1.451       .  S
C1129      C1130   1.417       .  A
C1130      C1133   1.451       .  S
C1131      C1134   1.410       .  A
C1131      C1742   1.413       .  A
C1132      N1149   1.158       .  T
C1133      N1151   1.158       .  T
C1134      C1135   1.406       .  A
C1134      C1139   1.451       .  S
C1135      C1740   1.413       .  A
C1135      C1141   1.453       .  S
C1136      C1137   1.413       .  A
C1137      C1138   1.415       .  A
C1137      C1140   1.450       .  S
C1138      C1142   1.450       .  S
C1139      N1146   1.157       .  T
C1140      N1147   1.157       .  T
C1141      N1145   1.158       .  T
C1142      N1148   1.157       .  T
C1143      N1756   1.157       .  T
C1144      N1150   1.157       .  T
C1153      C1154   1.412       .  A
C1153      C1158   1.410       .  A
C1153      C1171   1.451       .  S
C1154      C1159   1.496       .  S
C1154      C1155   1.412       .  A
C1155      C1156   1.412       .  A
C1155      C1764   1.450       .  S
C1156      C1157   1.411       .  A
C1156      C1172   1.451       .  S
C1157      C1158   1.411       .  A
C1158      C1161   1.451       .  S
C1159      C1766   1.408       .  A
C1159      C1166   1.406       .  A
C1160      N1177   1.157       .  T
C1161      N1179   1.158       .  T
C1162      C1163   1.412       .  A
C1162      C1167   1.450       .  S
C1163      C1164   1.420       .  A
C1163      C1169   1.451       .  S
C1165      C1768   1.426       .  A
C1165      C1166   1.409       .  A
C1165      C1168   1.452       .  S
C1166      C1170   1.453       .  S
C1167      N1174   1.157       .  T
C1168      N1175   1.158       .  T
C1169      N1173   1.158       .  T
C1170      N1176   1.157       .  T
C1171      N1180   1.157       .  T
C1172      N1782   1.157       .  T
C1181      C1182   1.413       .  A
C1181      C1186   1.410       .  A
C1181      C1199   1.451       .  S
C1182      C1187   1.500       .  S
C1182      C1183   1.412       .  A
C1183      C1184   1.412       .  A
C1183      C1188   1.450       .  S
C1184      C1185   1.416       .  A
C1184      C1200   1.452       .  S
C1185      C1186   1.414       .  A
C1186      C1189   1.451       .  S
C1187      C1190   1.413       .  A
C1187      C1194   1.410       .  A
C1188      N1205   1.158       .  T
C1189      N1207   1.158       .  T
C1190      C1191   1.415       .  A
C1190      C1195   1.451       .  S
C1191      C1192   1.416       .  A
C1191      C1197   1.450       .  S
C1192      C1193   1.415       .  A
C1193      C1194   1.409       .  A
C1193      C1196   1.450       .  S
C1194      C1198   1.452       .  S
C1195      N1202   1.157       .  T
C1196      N1203   1.157       .  T
C1197      N1201   1.158       .  T
C1198      N1204   1.158       .  T
C1199      N1208   1.157       .  T
C1200      N1206   1.158       .  T
In1209     O1211   2.235       .  S
In1209     O1214   2.261       .  S
In1209     O1216   2.241       .  S
In1209     O1217   2.237       .  S
In1209     O1218   2.253       .  S
In1209     O1221   2.250       .  S
C1210      O1216   1.259       .  A
C1210      O1218   1.261       .  A
C1210      C1340   1.464       .  S
O1212      C1219   1.258       .  A
C1213      O1214   1.261       .  A
C1213      C1768   1.504       .  S
C1215      O1217   1.258       .  A
C1215      O1221   1.259       .  A
C1215      C1789   1.488       .  S
C1219      C1349   1.459   1_554  S
In1222     O1224   2.222       .  S
In1222     O1233   2.227       .  S
In1222     O1227   2.230       .  S
In1222     O1229   2.236       .  S
In1222     O1230   2.231       .  S
In1222     O1231   2.228       .  S
In1222     O1234   2.240       .  S
C1223      O1229   1.259       .  A
C1223      O1231   1.260       .  A
C1223      C1262   1.452       .  S
O1225      C1232   1.259       .  A
C1226      O1233   1.259       .  A
C1226      O1227   1.259       .  A
C1226      C1733   1.476       .  S
C1228      O1230   1.259       .  A
C1228      O1234   1.259       .  A
C1228      C1712   1.480       .  S
C1232      C1271   1.462       .  S
In1235     O1237   2.238       .  S
In1235     O1238   2.249       .  S
In1235     O1246   2.239   1_556  S
In1235     O1240   2.255       .  S
In1235     O1242   2.247   1_556  S
In1235     O1243   2.262       .  S
In1235     O1244   2.248   1_556  S
In1235     O1247   2.251       .  S
C1236      O1242   1.258       .  A
C1236      O1244   1.260       .  A
O1237      C1245   1.258       .  A
O1238      C1245   1.261       .  A
C1239      O1246   1.261   1_556  A
C1239      O1240   1.261       .  A
C1239      C1656   1.499       .  S
C1241      O1243   1.260       .  A
C1241      O1247   1.258       .  A
C1241      C1677   1.494       .  S
C1245      C1314   1.460       .  S
In1248     O1250   2.204       .  S
In1248     O1251   2.256       .  S
In1248     O1259   2.208       .  S
In1248     O1253   2.250   1_554  S
In1248     O1255   2.241   1_554  S
In1248     O1256   2.251       .  S
In1248     O1257   2.214       .  S
In1248     O1260   2.198       .  S
C1249      O1255   1.269   1_554  A
C1249      O1257   1.264       .  A
C1249      C1705   1.491       .  S
O1250      C1258   1.262       .  A
O1251      C1258   1.270       .  A
C1252      O1259   1.263       .  A
C1252      O1253   1.268   1_554  A
C1252      C1649   1.477   1_554  S
C1254      O1256   1.269       .  A
C1254      O1260   1.262       .  A
C1254      C1761   1.471       .  S
C1258      C1628   1.482       .  S
In1261     O1263   2.245       .  S
In1261     O1264   2.250       .  S
In1261     O1272   2.264       .  S
In1261     O1266   2.246       .  S
In1261     O1268   2.238       .  S
In1261     O1269   2.243       .  S
In1261     O1270   2.228       .  S
In1261     O1273   2.255       .  S
C1262      O1268   1.261       .  A
C1262      O1270   1.258       .  A
O1263      C1271   1.261       .  A
O1264      C1271   1.258       .  A
C1265      O1272   1.261       .  A
C1265      O1266   1.259       .  A
C1265      C1593   1.495       .  S
C1267      O1269   1.259       .  A
C1267      O1273   1.260       .  A
C1267      C1565   1.494       .  S
In1274     O1276   2.242       .  S
In1274     O1277   2.247       .  S
In1274     O1285   2.232       .  S
In1274     O1279   2.249       .  S
In1274     O1282   2.238       .  S
In1274     O1283   2.240       .  S
In1274     O1286   2.243       .  S
C1275      O1281   1.258       .  A
C1275      C1297   1.465       .  S
O1276      C1284   1.260       .  A
O1277      C1284   1.261       .  A
C1278      O1285   1.257       .  A
C1278      O1279   1.259       .  A
C1278      C1537   1.482       .  S
C1280      O1282   1.260       .  A
C1280      O1286   1.259       .  A
C1280      C1621   1.481       .  S
C1284      C1288   1.463       .  S
In1287     O1289   2.256       .  S
In1287     O1290   2.251       .  S
In1287     O1298   2.235       .  S
In1287     O1292   2.255       .  S
In1287     O1294   2.250       .  S
In1287     O1295   2.238       .  S
In1287     O1296   2.248       .  S
In1287     O1299   2.244       .  S
C1288      O1294   1.258       .  A
C1288      O1296   1.259       .  A
O1289      C1297   1.259       .  A
O1290      C1297   1.258       .  A
C1291      O1298   1.261       .  A
C1291      O1292   1.261       .  A
C1291      C1509   1.489       .  S
C1293      O1295   1.261       .  A
C1293      O1299   1.262       .  A
C1293      C1481   1.494       .  S
In1300     O1302   2.203       .  S
In1300     O1303   2.254       .  S
In1300     O1311   2.215   1_455  S
In1300     O1305   2.259       .  S
In1300     O1307   2.248   1_545  S
In1300     O1308   2.253   1_545  S
In1300     O1309   2.221   1_545  S
In1300     O1312   2.199   1_545  S
C1301      O1307   1.270       .  A
C1301      O1309   1.264       .  A
C1301      C1453   1.498       .  S
O1302      C1310   1.263       .  A
O1303      C1310   1.268       .  A
C1304      O1311   1.261       .  A
C1304      O1305   1.268   1_655  A
C1304      C1600   1.479       .  S
C1306      O1308   1.269   1_655  A
C1306      O1312   1.261   1_655  A
C1306      C1488   1.480       .  S
C1310      C1432   1.478       .  S
In1313     O1315   2.241       .  S
In1313     O1316   2.254       .  S
In1313     O1324   2.262       .  S
In1313     O1318   2.251       .  S
In1313     O1320   2.247       .  S
In1313     O1321   2.268       .  S
In1313     O1322   2.241       .  S
In1313     O1325   2.236       .  S
C1314      O1320   1.259       .  A
C1314      O1322   1.261       .  A
O1315      C1323   1.261       .  A
O1316      C1323   1.262       .  A
C1317      O1324   1.260       .  A
C1317      O1318   1.258       .  A
C1317      C1460   1.488       .  S
C1319      O1321   1.260       .  A
C1319      O1325   1.255       .  A
C1319      C1397   1.498       .  S
In1326     O1328   2.213       .  S
In1326     O1329   2.230       .  S
In1326     O1337   2.204       .  S
In1326     O1331   2.257       .  S
In1326     O1333   2.258   1_545  S
In1326     O1334   2.238   1_545  S
In1326     O1335   2.196   1_545  S
In1326     O1338   2.193   1_545  S
C1327      O1333   1.271       .  A
C1327      O1335   1.261       .  A
C1327      C1404   1.483       .  S
O1328      C1336   1.264       .  A
O1329      C1336   1.267       .  A
C1330      O1337   1.264       .  A
C1330      O1331   1.270       .  A
C1330      C1572   1.482       .  S
C1332      O1334   1.270       .  A
C1332      O1338   1.263       .  A
C1332      C1544   1.486       .  S
C1336      C1796   1.476       .  S
In1339     O1341   2.240       .  S
In1339     O1342   2.244       .  S
In1339     O1350   2.230       .  S
In1339     O1344   2.247       .  S
In1339     O1346   2.243       .  S
In1339     O1347   2.246       .  S
In1339     O1348   2.250       .  S
In1339     O1351   2.232       .  S
C1340      O1346   1.260       .  A
C1340      O1348   1.261       .  A
O1341      C1349   1.259       .  A
O1342      C1349   1.259       .  A
C1343      O1350   1.258       .  A
C1343      O1344   1.260       .  A
C1343      C1376   1.483       .  S
C1345      O1347   1.260       .  A
C1345      O1351   1.261       .  A
C1345      C1425   1.481       .  S
In1352     O1354   2.203   1_455  S
In1352     O1355   2.262       .  S
In1352     O1363   2.188       .  S
In1352     O1360   2.258       .  S
In1352     O1361   2.208   1_455  S
In1352     O1364   2.199       .  S
C1353      O1359   1.268       .  A
C1353      C1740   1.477       .  S
O1354      C1362   1.262       .  A
O1355      C1362   1.270   1_455  A
C1356      O1357   1.269       .  A
C1356      C1684   1.492       .  S
C1358      O1360   1.270       .  A
C1358      O1364   1.262       .  A
C1358      C1369   1.476       .  S
C1362      C1516   1.490       .  S
C1365      C1366   1.411       .  A
C1365      C1370   1.413       .  A
C1366      C1371   1.491       .  S
C1366      C1367   1.408       .  A
C1367      C1368   1.405       .  A
C1367      C1372   1.451       .  S
C1368      C1369   1.412       .  A
C1368      C1384   1.451       .  S
C1369      C1370   1.411       .  A
C1371      C1374   1.407       .  A
C1371      C1378   1.411       .  A
C1372      N1389   1.157       .  T
C1373      N1391   1.157       .  T
C1374      C1375   1.409       .  A
C1374      C1379   1.450       .  S
C1375      C1376   1.416       .  A
C1375      C1381   1.451       .  S
C1376      C1377   1.415       .  A
C1377      C1378   1.409       .  A
C1377      C1380   1.452       .  S
C1378      C1382   1.452       .  S
C1379      N1386   1.157       .  T
C1380      N1387   1.158       .  T
C1381      N1385   1.158       .  T
C1382      N1388   1.157       .  T
C1383      N1392   1.158       .  T
C1384      N1390   1.157       .  T
C1393      C1394   1.408       .  A
C1393      C1398   1.411       .  A
C1393      C1411   1.451       .  S
C1394      C1399   1.496       .  S
C1394      C1395   1.410       .  A
C1395      C1396   1.411       .  A
C1395      C1400   1.452       .  S
C1396      C1397   1.420       .  A
C1396      C1412   1.451       .  S
C1397      C1398   1.423       .  A
C1398      C1401   1.452       .  S
C1399      C1402   1.409       .  A
C1399      C1406   1.413       .  A
C1400      N1417   1.158       .  T
C1401      N1419   1.158       .  T
C1402      C1403   1.407       .  A
C1402      C1407   1.452       .  S
C1403      C1404   1.416       .  A
C1403      C1409   1.452       .  S
C1404      C1405   1.412       .  A
C1405      C1406   1.413       .  A
C1405      C1408   1.449       .  S
C1406      C1410   1.450       .  S
C1407      N1414   1.158       .  T
C1408      N1415   1.157       .  T
C1409      N1413   1.158       .  T
C1410      N1416   1.158       .  T
C1411      N1420   1.157       .  T
C1412      N1418   1.157       .  T
C1421      C1422   1.410       .  A
C1421      C1426   1.407       .  A
C1421      C1439   1.451       .  S
C1422      C1427   1.491       .  S
C1422      C1423   1.408       .  A
C1423      C1424   1.412       .  A
C1423      C1428   1.449   1_556  S
C1424      C1425   1.416       .  A
C1424      C1440   1.450   1_556  S
C1425      C1426   1.414       .  A
C1426      C1429   1.452       .  S
C1427      C1430   1.410       .  A
C1427      C1434   1.410       .  A
C1428      N1445   1.157       .  T
C1429      N1447   1.157       .  T
C1430      C1431   1.406       .  A
C1430      C1435   1.451       .  S
C1431      C1432   1.411       .  A
C1431      C1437   1.452       .  S
C1432      C1433   1.413       .  A
C1433      C1434   1.413       .  A
C1433      C1436   1.449       .  S
C1434      C1438   1.450       .  S
C1435      N1442   1.157       .  T
C1436      N1443   1.158       .  T
C1437      N1441   1.157       .  T
C1438      N1444   1.157       .  T
C1439      N1448   1.158       .  T
C1440      N1446   1.158       .  T
C1449      C1450   1.410       .  A
C1449      C1454   1.411       .  A
C1449      C1467   1.452       .  S
C1450      C1455   1.502       .  S
C1450      C1451   1.412       .  A
C1451      C1452   1.414       .  A
C1451      C1456   1.450       .  S
C1452      C1453   1.418       .  A
C1452      C1468   1.451       .  S
C1453      C1454   1.421       .  A
C1454      C1457   1.451       .  S
C1455      C1458   1.412       .  A
C1455      C1462   1.413       .  A
C1456      N1473   1.158       .  T
C1457      N1475   1.158       .  T
C1458      C1459   1.413       .  A
C1458      C1463   1.450       .  S
C1459      C1460   1.414       .  A
C1459      C1465   1.451       .  S
C1460      C1461   1.414       .  A
C1461      C1462   1.412       .  A
C1461      C1464   1.451       .  S
C1462      C1466   1.451       .  S
C1464      N1471   1.157       .  T
C1465      N1469   1.158       .  T
C1466      N1472   1.158       .  T
C1467      N1476   1.157       .  T
C1468      N1474   1.158   1_565  T
C1477      C1478   1.408       .  A
C1477      C1482   1.411       .  A
C1477      C1495   1.451       .  S
C1478      C1483   1.495       .  S
C1478      C1479   1.411       .  A
C1479      C1480   1.410       .  A
C1479      C1484   1.453       .  S
C1480      C1481   1.419       .  A
C1480      C1496   1.451       .  S
C1481      C1482   1.420       .  A
C1482      C1485   1.451       .  S
C1483      C1486   1.409       .  A
C1483      C1490   1.413       .  A
C1484      N1501   1.157       .  T
C1485      N1503   1.157       .  T
C1486      C1487   1.407       .  A
C1486      C1491   1.451       .  S
C1487      C1488   1.415       .  A
C1487      C1493   1.452   1_655  S
C1488      C1489   1.412       .  A
C1489      C1490   1.412       .  A
C1489      C1492   1.451       .  S
C1490      C1494   1.450       .  S
C1491      N1498   1.158       .  T
C1492      N1499   1.158       .  T
C1493      N1497   1.158       .  T
C1494      N1500   1.157       .  T
C1495      N1504   1.158       .  T
C1496      N1502   1.158       .  T
C1505      C1506   1.411       .  A
C1505      C1510   1.409       .  A
C1505      C1523   1.451       .  S
C1506      C1511   1.498       .  S
C1506      C1507   1.412       .  A
C1507      C1508   1.413       .  A
C1507      C1512   1.450       .  S
C1508      C1509   1.417       .  A
C1508      C1524   1.451       .  S
C1509      C1510   1.415       .  A
C1510      C1513   1.451       .  S
C1511      C1514   1.412       .  A
C1511      C1518   1.410       .  A
C1513      N1531   1.158       .  T
C1514      C1515   1.415       .  A
C1514      C1519   1.450       .  S
C1515      C1516   1.415       .  A
C1515      C1521   1.450       .  S
C1516      C1517   1.417       .  A
C1517      C1518   1.408       .  A
C1517      C1520   1.452       .  S
C1518      C1522   1.452       .  S
C1519      N1526   1.158       .  T
C1520      N1527   1.158   1_655  T
C1521      N1525   1.158       .  T
C1522      N1528   1.158       .  T
C1523      N1532   1.157       .  T
C1524      N1530   1.157       .  T
C1533      C1534   1.408       .  A
C1533      C1538   1.408       .  A
C1533      C1551   1.452       .  S
C1534      C1539   1.486       .  S
C1534      C1535   1.408       .  A
C1535      C1536   1.406       .  A
C1535      C1540   1.452       .  S
C1536      C1537   1.415       .  A
C1536      C1552   1.452       .  S
C1537      C1538   1.417       .  A
C1538      C1541   1.451       .  S
C1539      C1542   1.406       .  A
C1539      C1546   1.407       .  A
C1540      N1557   1.158       .  T
C1542      C1543   1.405       .  A
C1542      C1547   1.452       .  S
C1543      C1544   1.421       .  A
C1543      C1549   1.452       .  S
C1544      C1545   1.418       .  A
C1545      C1546   1.409       .  A
C1545      C1548   1.451       .  S
C1546      C1550   1.451       .  S
C1547      N1554   1.157       .  T
C1548      N1555   1.157       .  T
C1549      N1553   1.158       .  T
C1550      N1556   1.158       .  T
C1551      N1560   1.157       .  T
C1552      N1558   1.157       .  T
C1561      C1562   1.410       .  A
C1561      C1566   1.414       .  A
C1561      C1579   1.450       .  S
C1562      C1567   1.499       .  S
C1562      C1563   1.411       .  A
C1563      C1564   1.410       .  A
C1563      C1568   1.452       .  S
C1564      C1565   1.418       .  A
C1564      C1580   1.452       .  S
C1565      C1566   1.419       .  A
C1566      C1569   1.452       .  S
C1567      C1570   1.414       .  A
C1567      C1574   1.411       .  A
C1568      N1585   1.157       .  T
C1569      N1587   1.157       .  T
C1570      C1571   1.415       .  A
C1570      C1575   1.449       .  S
C1571      C1572   1.410       .  A
C1571      C1577   1.449       .  S
C1572      C1573   1.412       .  A
C1573      C1574   1.408       .  A
C1573      C1576   1.452       .  S
C1574      C1578   1.451       .  S
C1575      N1582   1.157       .  T
C1576      N1583   1.157   1_545  T
C1577      N1581   1.158       .  T
C1578      N1584   1.158       .  T
C1579      N1588   1.158       .  T
C1580      N1586   1.158       .  T
C1589      C1590   1.409       .  A
C1589      C1594   1.414       .  A
C1589      C1607   1.450       .  S
C1590      C1595   1.498       .  S
C1590      C1591   1.410       .  A
C1591      C1592   1.411       .  A
C1591      C1596   1.452       .  S
C1592      C1593   1.419       .  A
C1592      C1608   1.452       .  S
C1593      C1594   1.418       .  A
C1594      C1597   1.450       .  S
C1595      C1598   1.411       .  A
C1595      C1602   1.412       .  A
C1596      N1613   1.157       .  T
C1597      N1615   1.157       .  T
C1598      C1599   1.410       .  A
C1598      C1603   1.450       .  S
C1599      C1600   1.411       .  A
C1599      C1605   1.450       .  S
C1600      C1601   1.411       .  A
C1601      C1602   1.413       .  A
C1601      C1604   1.451       .  S
C1602      C1606   1.449       .  S
C1603      N1610   1.157       .  T
C1604      N1611   1.157   1_545  T
C1605      N1609   1.158   1_655  T
C1606      N1612   1.158       .  T
C1608      N1614   1.158       .  T
C1617      C1618   1.413       .  A
C1617      C1622   1.408   1_554  A
C1617      C1635   1.452   1_554  S
C1618      C1623   1.495       .  S
C1619      C1620   1.409       .  A
C1619      C1624   1.450       .  S
C1620      C1621   1.413       .  A
C1620      C1636   1.452       .  S
C1622      C1625   1.451       .  S
C1623      C1626   1.409       .  A
C1623      C1630   1.412       .  A
C1624      N1641   1.157       .  T
C1625      N1643   1.158       .  T
C1626      C1627   1.407       .  A
C1626      C1631   1.451       .  S
C1627      C1628   1.414       .  A
C1627      C1633   1.451       .  S
C1628      C1629   1.413       .  A
C1629      C1630   1.414       .  A
C1631      N1638   1.157       .  T
C1632      N1639   1.157       .  T
C1633      N1637   1.157       .  T
C1634      N1640   1.158       .  T
C1635      N1644   1.157       .  T
C1636      N1642   1.157       .  T
C1645      C1646   1.411       .  A
C1645      C1650   1.408       .  A
C1645      C1663   1.450       .  S
C1646      C1651   1.496       .  S
C1646      C1647   1.412       .  A
C1647      C1648   1.412       .  A
C1647      C1652   1.450       .  S
C1648      C1649   1.412       .  A
C1648      C1664   1.451       .  S
C1649      C1650   1.411       .  A
C1650      C1653   1.451   1_556  S
C1651      C1654   1.407       .  A
C1651      C1658   1.408   1_556  A
C1652      N1669   1.157       .  T
C1653      N1671   1.157       .  T
C1654      C1655   1.413       .  A
C1654      C1659   1.451       .  S
C1655      C1656   1.422       .  A
C1655      C1661   1.450       .  S
C1656      C1657   1.421   1_556  A
C1657      C1658   1.410       .  A
C1657      C1660   1.451       .  S
C1658      C1662   1.451       .  S
C1659      N1666   1.158       .  T
C1660      N1667   1.158       .  T
C1661      N1665   1.158       .  T
C1662      N1668   1.157       .  T
C1664      N1670   1.157       .  T
C1673      C1678   1.410       .  A
C1673      C1691   1.450       .  S
C1674      C1679   1.496       .  S
C1674      C1675   1.410       .  A
C1675      C1676   1.412       .  A
C1675      C1680   1.451       .  S
C1676      C1677   1.418       .  A
C1676      C1692   1.451       .  S
C1678      C1681   1.451       .  S
C1679      C1686   1.410       .  A
C1680      N1697   1.157       .  T
C1681      N1699   1.157       .  T
C1682      C1683   1.407       .  A
C1682      C1687   1.453       .  S
C1683      C1684   1.420       .  A
C1683      C1689   1.452       .  S
C1685      C1686   1.414       .  A
C1685      C1688   1.450       .  S
C1686      C1690   1.450   1_556  S
C1687      N1694   1.157       .  T
C1688      N1695   1.157   1_556  T
C1689      N1693   1.158       .  T
C1690      N1696   1.158       .  T
C1691      N1700   1.157       .  T
C1692      N1698   1.157       .  T
C1701      C1702   1.407   1_554  A
C1701      C1706   1.408       .  A
C1701      C1719   1.453       .  S
C1702      C1707   1.490       .  S
C1702      C1703   1.408       .  A
C1703      C1704   1.411       .  A
C1703      C1708   1.451       .  S
C1704      C1705   1.418   1_556  A
C1704      C1720   1.450       .  S
C1705      C1706   1.421       .  A
C1706      C1709   1.452       .  S
C1707      C1710   1.409   1_556  A
C1707      C1714   1.409       .  A
C1708      N1725   1.157       .  T
C1709      N1727   1.158       .  T
C1710      C1711   1.407   1_554  A
C1710      C1715   1.451       .  S
C1711      C1712   1.414       .  A
C1711      C1717   1.452   1_556  S
C1712      C1713   1.415       .  A
C1713      C1714   1.409       .  A
C1713      C1716   1.451       .  S
C1714      C1718   1.450       .  S
C1715      N1722   1.157       .  T
C1716      N1723   1.157       .  T
C1717      N1721   1.158       .  T
C1718      N1724   1.158       .  T
C1720      N1726   1.157       .  T
C1729      C1730   1.410       .  A
C1729      C1734   1.405       .  A
C1729      C1747   1.451       .  S
C1730      C1735   1.490       .  S
C1730      C1731   1.411       .  A
C1731      C1732   1.408       .  A
C1731      C1736   1.450       .  S
C1732      C1733   1.413       .  A
C1732      C1748   1.452       .  S
C1733      C1734   1.413       .  A
C1734      C1737   1.451       .  S
C1735      C1738   1.408       .  A
C1736      N1753   1.158       .  T
C1737      N1755   1.158       .  T
C1738      C1739   1.407       .  A
C1738      C1743   1.452       .  S
C1739      C1745   1.452       .  S
C1740      C1741   1.411       .  A
C1741      C1742   1.412       .  A
C1741      C1744   1.451       .  S
C1742      C1746   1.450       .  S
C1743      N1750   1.157       .  T
C1744      N1751   1.157   1_655  T
C1745      N1749   1.157       .  T
C1746      N1752   1.157       .  T
C1748      N1754   1.158       .  T
C1757      C1758   1.412       .  A
C1757      C1762   1.409       .  A
C1757      C1775   1.450       .  S
C1758      C1763   1.492       .  S
C1758      C1759   1.411       .  A
C1759      C1760   1.408       .  A
C1760      C1761   1.410       .  A
C1760      C1776   1.451       .  S
C1761      C1762   1.409       .  A
C1762      C1765   1.451       .  S
C1763      C1770   1.411       .  A
C1764      N1781   1.157       .  T
C1765      N1783   1.157       .  T
C1766      C1767   1.415       .  A
C1766      C1771   1.450       .  S
C1767      C1768   1.424       .  A
C1767      C1773   1.451       .  S
C1769      C1770   1.407       .  A
C1769      C1772   1.452       .  S
C1770      C1774   1.453       .  S
C1771      N1778   1.157       .  T
C1772      N1779   1.158   1_554  T
C1773      N1777   1.158       .  T
C1774      N1780   1.157       .  T
C1775      N1784   1.158       .  T
C1785      C1786   1.410       .  A
C1785      C1790   1.409       .  A
C1785      C1803   1.452       .  S
C1786      C1791   1.492       .  S
C1786      C1787   1.409       .  A
C1787      C1788   1.409       .  A
C1787      C1792   1.451       .  S
C1788      C1789   1.418       .  A
C1788      C1804   1.452       .  S
C1789      C1790   1.417       .  A
C1790      C1793   1.451       .  S
C1791      C1794   1.411       .  A
C1791      C1798   1.411       .  A
C1792      N1809   1.158       .  T
C1793      N1811   1.158       .  T
C1794      C1795   1.408       .  A
C1794      C1799   1.451       .  S
C1795      C1796   1.413       .  A
C1795      C1801   1.451       .  S
C1796      C1797   1.411       .  A
C1797      C1798   1.407       .  A
C1797      C1800   1.451       .  S
C1798      C1802   1.451       .  S
C1799      N1806   1.157       .  T
C1800      N1807   1.157       .  T
C1801      N1805   1.158       .  T
C1802      N1808   1.158       .  T
C1803      N1812   1.158       .  T
C1804      N1810   1.158       .  T
