geometry optimzed in LAMMPS
_audit_creation_date              2020-11-30 
_audit_creation_method            'lammps2cif' 
_symmetry_space_group_name_H-M    'P1' 
_symmetry_Int_Tables_number       1 
_symmetry_cell_setting            triclinic 
loop_ 
_symmetry_equiv_pos_as_xyz 
  x,y,z 
_cell_length_a                    20.50480271459401 
_cell_length_b                    26.59351817627076 
_cell_length_c                    44.23950251522135 
_cell_angle_alpha                 90.62646664548393 
_cell_angle_beta                  89.49686010463942 
_cell_angle_gamma                 83.87152202953003 
loop_ 
_atom_site_label 
_atom_site_type_symbol 
_atom_site_fract_x 
_atom_site_fract_y 
_atom_site_fract_z 
_atom_site_charge 
O1          O  0.19246750  0.18025085  0.11921162    -0.74710
O2          O  0.18750999  0.07981960  0.05674742    -0.74740
O3          O  0.19035991  0.07788617  0.11814392    -0.74800
O4          O  0.18940257  0.18009972  0.05810307    -0.74850
O5          O  0.29864144  0.17049582  0.05656122    -0.74780
O6          O  0.29939766  0.06698992  0.11626810    -0.74760
O7          O  0.29699522  0.07036803  0.05478251    -0.74730
O8          O  0.30194580  0.16972752  0.11771108    -0.74800
Ni9        Ni  0.18608355  0.12980210  0.08837171     1.25410
Ni10       Ni  0.30319264  0.11892818  0.08656303     1.25360
C11         C  0.24802470  0.19285664  0.12774668     0.87470
C12         C  0.24146535  0.06109904  0.04432245     0.87400
C13         C  0.24479103  0.05449934  0.12664599     0.87430
C14         C  0.24359812  0.19014538  0.04624312     0.87600
C15         C  0.25389388  0.11879333  0.77854040    -0.02770
O16         O  0.19321881  0.32221680  0.86424645    -0.74710
O17         O  0.18358571  0.42498701  0.92575695    -0.74740
O18         O  0.18518837  0.42506520  0.86415150    -0.74800
O19         O  0.19205313  0.32421504  0.92553826    -0.74850
O20         O  0.30101806  0.32079380  0.92591208    -0.74780
O21         O  0.29433920  0.42004230  0.86398926    -0.74760
O22         O  0.29287464  0.42162911  0.92542655    -0.74730
O23         O  0.30261249  0.31748887  0.86468166    -0.74800
Ni24       Ni  0.18458707  0.37431406  0.89467753     1.25410
Ni25       Ni  0.30158943  0.36992445  0.89476931     1.25360
C26         C  0.24946225  0.30191252  0.85516251     0.87470
C27         C  0.23687582  0.43791232  0.93682978     0.87400
C28         C  0.23884052  0.43979230  0.85425689     0.87430
C29         C  0.24744810  0.30805725  0.93704454     0.87600
C30         C  0.24955375  0.37488100  0.20536448    -0.02770
O31         O  0.44952657  0.43753355  0.61744181    -0.74710
O32         O  0.44994779  0.33090501  0.55860726    -0.74740
O33         O  0.44960141  0.33485160  0.61995105    -0.74800
O34         O  0.45028833  0.43130686  0.55635181    -0.74850
O35         O  0.05958004  0.42319258  0.55659183    -0.74780
O36         O  0.05876325  0.32485904  0.61912840    -0.74760
O37         O  0.05927635  0.32279600  0.55770813    -0.74730
O38         O  0.05902232  0.42780198  0.61771496    -0.74800
Ni39       Ni  0.44595622  0.38393752  0.58835178     1.25410
Ni40       Ni  0.06306301  0.37428026  0.58804026     1.25360
C41         C  0.50417504  0.45130215  0.62639346     0.87470
C42         C  0.50461290  0.31131801  0.54725536     0.87400
C43         C  0.50401329  0.31257115  0.62937019     0.87430
C44         C  0.50511958  0.44189981  0.54532824     0.87600
O45         O  0.44783586  0.18079752  0.42670589    -0.74710
O46         O  0.44957220  0.07838527  0.36492962    -0.74740
O47         O  0.44958489  0.08017430  0.42613669    -0.74800
O48         O  0.44755129  0.18145405  0.36533570    -0.74850
O49         O  0.05679944  0.17277389  0.36416259    -0.74780
O50         O  0.05885142  0.07329278  0.42615463    -0.74760
O51         O  0.05906986  0.06977024  0.36495041    -0.74730
O52         O  0.05711476  0.17394384  0.42546177    -0.74800
Ni53       Ni  0.44473195  0.13053538  0.39553867     1.25410
Ni54       Ni  0.06184124  0.12220730  0.39491278     1.25360
C55         C  0.50235520  0.19261598  0.43714722     0.87470
C56         C  0.50466428  0.05578839  0.35581939     0.87400
C57         C  0.50443642  0.06162116  0.43707501     0.87430
C58         C  0.50180614  0.19478003  0.35519866     0.87600
C59         C  0.49790725  0.37466045  0.27707536    -0.02770
C60         C  0.50208344  0.13135474  0.70611888    -0.02770
C61         C  0.49923347  0.01637731  0.30505953    -0.26600
C62         C  0.50544783  0.01059228  0.33619169    -0.14680
C63         C  0.01304858  0.46149840  0.34818817     0.35950
C64         C  0.01127317  0.41970617  0.32887177    -0.26050
C65         C  0.49947849  0.42414086  0.29734310    -0.15290
C66         C  0.49722448  0.47464780  0.28542453     0.37040
N67         N  0.49270048  0.98616899  0.25378117    -0.89540
H68         H  0.49571173  0.05411683  0.29574612     0.18150
H69         H  0.01998432  0.38329645  0.33946311     0.18140
N70         N  0.02194571  0.45213801  0.37995627    -0.88570
H71         H  0.44967349  0.01033727  0.25057762     0.35520
H72         H  0.48781014  0.45457154  0.24062641     0.40620
H73         H  0.02136995  0.48546254  0.39257875     0.40240
H74         H  0.06843429  0.43246609  0.38266105     0.35130
C75         C  0.05158033  0.28679907  0.29601667    -0.26600
C76         C  0.49915317  0.32630879  0.29749164    -0.14680
C77         C  0.44477134  0.31846249  0.31679717     0.35950
C78         C  0.44661930  0.27477194  0.33452346    -0.26050
C79         C  0.50063385  0.23779206  0.33395118    -0.15290
C80         C  0.05311221  0.24346914  0.31400911     0.37040
N81         N  0.10738610  0.20458721  0.31147766    -0.89540
H82         H  0.09091987  0.28747906  0.27981343     0.18150
H83         H  0.40568424  0.27018722  0.34953006     0.18140
N84         N  0.38647072  0.35385089  0.31771172    -0.88570
H85         H  0.14261400  0.21468584  0.29610008     0.35520
H86         H  0.08942636  0.17222373  0.30260172     0.40620
H87         H  0.39679735  0.38644250  0.32920162     0.40240
H88         H  0.34903599  0.33955322  0.33009042     0.35130
C89         C  0.45180130  0.47535783  0.49851100    -0.26600
C90         C  0.50527901  0.47400178  0.51823081    -0.14680
C91         C  0.05932309  0.50029741  0.51061090     0.35950
C92         C  0.05872095  0.02697761  0.48340294    -0.26050
C93         C  0.50507405  0.02857073  0.46377402    -0.15290
C94         C  0.45127251  0.00194108  0.47127475     0.37040
N95         N  0.39669552  0.00137446  0.45111967    -0.89540
H96         H  0.41079126  0.45443934  0.50396515     0.18150
H97         H  0.09969781  0.04793845  0.47796350     0.18260
N98         N  0.11416085  0.50054135  0.53063741    -0.88570
H99         H  0.36100071  0.48043985  0.46018566     0.35520
H100        H  0.41401044  0.98255962  0.43128149     0.40620
H101        H  0.09729205  0.51952938  0.55047955     0.40240
H102        H  0.15004799  0.02116939  0.52145562     0.35130
C103        C  0.05550595  0.27977647  0.49869854    -0.26600
C104        C  0.50471349  0.27834461  0.52009670    -0.14680
C105        C  0.45225078  0.24974020  0.51368789     0.35950
C106        C  0.45140972  0.22376884  0.48588733    -0.26050
C107        C  0.50220437  0.22524491  0.46447519    -0.15290
C108        C  0.05461403  0.25391705  0.47088932     0.37040
N109        N  0.10616396  0.25738392  0.44900339    -0.89540
H110        H  0.09512913  0.30259291  0.50325107     0.18150
H111        H  0.41175648  0.20099678  0.48131010     0.18140
N112        N  0.40056749  0.24655489  0.53553888    -0.88570
H113        H  0.14107653  0.27977204  0.45732333     0.35520
H114        H  0.08524283  0.27598220  0.43015847     0.40620
H115        H  0.42133314  0.22810086  0.55446302     0.40240
H116        H  0.36564859  0.22414997  0.52724384     0.35130
C117        C  0.50470515  0.49087659  0.67705052    -0.26600
C118        C  0.50377979  0.49661084  0.64581326    -0.14680
C119        C  0.99925551  0.04568354  0.63367364     0.35950
C120        C  0.99754005  0.08764901  0.65317182    -0.26050
C121        C  0.50140247  0.08307130  0.68503750    -0.15290
C122        C  0.50142485  0.03270208  0.69669640     0.37040
N123        N  0.49555324  0.52184331  0.72818681    -0.89540
H124        H  0.50573222  0.45327865  0.68641135     0.18150
H125        H  0.99109302  0.12414937  0.64258875     0.18140
N126        N  0.99518937  0.05482714  0.60170420    -0.88570
H127        H  0.44832174  0.53470534  0.73554146     0.35520
H128        H  0.53032291  0.03814258  0.74094142     0.40620
H129        H  0.99616660  0.02138834  0.58913363     0.40240
H130        H  0.03681028  0.07179936  0.59529516     0.35130
C131        C  0.45253637  0.22184696  0.68933350    -0.26600
C132        C  0.50340930  0.18129275  0.68728670    -0.14680
C133        C  0.05760404  0.18861377  0.66800717     0.35950
C134        C  0.05723882  0.23227276  0.65044838    -0.26050
C135        C  0.50404397  0.27002168  0.65100196    -0.15290
C136        C  0.45152517  0.26507777  0.67118269     0.37040
N137        N  0.39776965  0.30436145  0.67383800    -0.89540
H138        H  0.41254079  0.22077138  0.70519862     0.18150
H139        H  0.09839793  0.23559476  0.63532962     0.18140
N140        N  0.11267553  0.15086635  0.66519213    -0.88570
H141        H  0.36731962  0.29774778  0.69213062     0.35520
H142        H  0.36894011  0.30220396  0.65460189     0.40620
H143        H  0.15482650  0.16733577  0.67127482     0.40240
H144        H  0.11766552  0.13950305  0.64251195     0.35130
C145        C  0.12640679  0.37288218  0.21001799    -0.26600
C146        C  0.18600041  0.37444517  0.22550371    -0.14680
C147        C  0.18276410  0.37202965  0.25778375     0.35950
C148        C  0.12149029  0.37437939  0.27242445    -0.26050
C149        C  0.06169562  0.37365408  0.25691953    -0.15290
C150        C  0.06546712  0.37429017  0.22470243     0.37040
N151        N  0.00855448  0.37890124  0.20604864    -0.89540
H152        H  0.12681822  0.37298667  0.18550765     0.18150
H153        H  0.12056901  0.37385217  0.29689209     0.18140
N154        N  0.24039259  0.36549086  0.27623031    -0.88570
H155        H  0.01176524  0.34801976  0.19106412     0.35520
H156        H  0.00928499  0.41157006  0.19315662     0.40620
H157        H  0.26258112  0.32862979  0.27302797     0.40240
H158        H  0.22869037  0.36903625  0.29925728     0.35130
C159        C  0.36252768  0.33362676  0.22323275    -0.26600
C160        C  0.31336978  0.37505166  0.22447205    -0.14680
C161        C  0.32657160  0.41718526  0.24296374     0.35950
C162        C  0.38307213  0.41461804  0.26046134    -0.26050
C163        C  0.43324202  0.37395980  0.25846832    -0.15290
C164        C  0.41937042  0.33140999  0.24045894     0.37040
N165        N  0.46102033  0.28448599  0.23890802    -0.89540
H166        H  0.35838767  0.30143334  0.20869136     0.18150
H167        H  0.38630124  0.44583885  0.27585995     0.18140
N168        N  0.28395555  0.46359422  0.24511681    -0.88570
H169        H  0.45662103  0.26466896  0.25889944     0.35520
H170        H  0.50969163  0.29030465  0.23474831     0.40620
H171        H  0.23573752  0.45688484  0.24964795     0.40240
H172        H  0.28675981  0.48385983  0.22519587     0.35130
C173        C  0.13807554  0.16171472  0.76378004    -0.26600
C174        C  0.19045702  0.12346737  0.75797280    -0.14680
C175        C  0.17839941  0.08679755  0.73529658     0.35950
C176        C  0.11867200  0.09057418  0.71992942    -0.26050
C177        C  0.06634614  0.12871979  0.72578263    -0.15290
C178        C  0.07891530  0.16619512  0.74784202     0.37040
N179        N  0.03351350  0.20968708  0.75551557    -0.89540
H180        H  0.14031658  0.18874453  0.78194193     0.18150
H181        H  0.11538329  0.06288333  0.70218637     0.18140
N182        N  0.22462587  0.04437225  0.72673957    -0.88570
H183        H  0.02114308  0.20753147  0.77841728     0.35520
H184        H  0.98979792  0.21075134  0.74397289     0.40620
H185        H  0.26875295  0.04432331  0.73780101     0.40240
H186        H  0.23582771  0.04770239  0.70379836     0.35130
C187        C  0.31785526  0.13024594  0.72829552    -0.26600
C188        C  0.31884738  0.12219927  0.75978834    -0.14680
C189        C  0.38070781  0.12325087  0.77411137     0.35950
C190        C  0.43808053  0.12643290  0.75704104    -0.26050
C191        C  0.43741008  0.13151547  0.72533412    -0.15290
C192        C  0.37524056  0.13276261  0.71116027     0.37040
N193        N  0.36964473  0.13679486  0.67897867    -0.89540
H194        H  0.27238188  0.13487852  0.71610847     0.18150
H195        H  0.48354106  0.12261309  0.76924971     0.18140
N196        N  0.38622256  0.12072782  0.80630975    -0.88570
H197        H  0.33771402  0.16898193  0.67414533     0.35520
H198        H  0.34857045  0.10521560  0.67090078     0.40620
H199        H  0.40458540  0.15376718  0.81391332     0.40240
H200        H  0.42043707  0.09029660  0.81179680     0.35130
C201        C  0.25346377  0.21358503  0.78723577    -0.26600
C202        C  0.25267844  0.16544587  0.80101931    -0.14680
C203        C  0.25685400  0.16487496  0.83355236     0.35950
C204        C  0.25623866  0.21026586  0.84976762    -0.26050
C205        C  0.25297152  0.25687776  0.83556672    -0.15290
C206        C  0.25279670  0.25878845  0.80385134     0.37040
N207        N  0.25119522  0.30555875  0.78770364    -0.89540
H208        H  0.25287828  0.21618860  0.76280572     0.18150
H209        H  0.25844912  0.20903709  0.87426077     0.18140
N210        N  0.26559607  0.12052321  0.85175475    -0.88570
H211        H  0.29466138  0.30444274  0.77505563     0.35520
H212        H  0.25053004  0.33661256  0.80238180     0.40620
H213        H  0.30296003  0.09386219  0.84386030     0.40240
H214        H  0.22101478  0.10662845  0.85629760     0.35130
C215        C  0.19139975  0.06069278  0.81069296    -0.26600
C216        C  0.25066355  0.06733945  0.79517829    -0.14680
C217        C  0.30020805  0.02514606  0.79502247     0.35950
C218        C  0.29367660  0.48384275  0.81379842    -0.26050
C219        C  0.23797450  0.48103106  0.83188162    -0.15290
C220        C  0.18487949  0.01894032  0.82932059     0.37040
N221        N  0.12585587  0.01670489  0.84682385    -0.89540
H222        H  0.15124160  0.09060889  0.81031634     0.18150
H223        H  0.33325220  0.45337020  0.81418095     0.18140
N224        N  0.35628778  0.02180399  0.77538063    -0.88570
H225        H  0.09095813  0.04692118  0.84167704     0.35520
H226        H  0.13763928  0.52128495  0.86956629     0.40620
H227        H  0.35485224  0.99017205  0.76124526     0.40240
H228        H  0.39842593  0.51528413  0.78851164     0.35130
C229        C  0.24484879  0.23409779  0.17853722    -0.26600
C230        C  0.24982172  0.23778627  0.14723220    -0.14680
C231        C  0.25351784  0.28519199  0.13412632     0.35950
C232        C  0.25100910  0.32854461  0.15265759    -0.26050
C233        C  0.25024574  0.32592528  0.18468922    -0.15290
C234        C  0.24529369  0.27708093  0.19728892     0.37040
N235        N  0.24062147  0.27064040  0.22926996    -0.89540
H236        H  0.24083389  0.19753747  0.18857421     0.18150
H237        H  0.24889717  0.36414776  0.14122941     0.18140
N238        N  0.25825846  0.28924805  0.10177467    -0.88570
H239        H  0.19675227  0.25542052  0.23403173     0.35520
H240        H  0.27947761  0.24455359  0.23593554     0.40620
H241        H  0.30317791  0.27001759  0.09489026     0.40240
H242        H  0.25953214  0.32690639  0.09546717     0.35130
C243        C  0.19347363  0.46156632  0.18557103    -0.26600
C244        C  0.24766848  0.42366396  0.18535443    -0.14680
C245        C  0.30274546  0.43301387  0.16712023     0.35950
C246        C  0.30084010  0.97623413  0.14913755    -0.26050
C247        C  0.24486607  0.01125158  0.14785367    -0.15290
C248        C  0.19031035  0.50358011  0.16634838     0.37040
N249        N  0.13191063  0.53874668  0.16610184    -0.89540
H250        H  0.15282201  0.45983302  0.20091790     0.18150
H251        H  0.34344403  0.98147216  0.13532525     0.18140
N252        N  0.36099660  0.39810742  0.16632795    -0.88570
H253        H  0.09898107  0.53034545  0.18302900     0.35520
H254        H  0.10821295  0.03334624  0.14567992     0.40620
H255        H  0.40004359  0.41768367  0.17305545     0.40240
H256        H  0.36986644  0.88584605  0.14398738     0.35130
C257        C  0.29958022  0.24425438  0.01103751    -0.26600
C258        C  0.24289995  0.22198814  0.01894670    -0.14680
C259        C  0.18859894  0.22677920  0.99925866     0.35950
C260        C  0.19201126  0.25438619  0.97257393    -0.26050
C261        C  0.24861386  0.27673252  0.96462345    -0.15290
C262        C  0.30298753  0.27193475  0.98431863     0.37040
N263        N  0.36097355  0.29593718  0.97763326    -0.89540
H264        H  0.34139479  0.24047648  0.02596113     0.18150
H265        H  0.15015409  0.25794158  0.95767999     0.18140
N266        N  0.13076497  0.20250021  0.00583845    -0.88570
H267        H  0.39703034  0.28699879  0.99384992     0.35520
H268        H  0.34827513  0.33502179  0.97931927     0.40620
H269        H  0.14375864  0.16344222  0.00421103     0.40240
H270        H  0.09476956  0.21124561  0.98956846     0.35130
C271        C  0.21191702  0.48482428  0.01783698    -0.26600
C272        C  0.23960490  0.03058255  0.01652009    -0.14680
C273        C  0.26375756  0.04681754  0.98848593     0.35950
C274        C  0.26132531  0.01589032  0.96283133    -0.26050
C275        C  0.23432792  0.46985870  0.96419590    -0.15290
C276        C  0.20972716  0.45376060  0.99219001     0.37040
N277        N  0.18405227  0.40587872  0.99587615    -0.89540
H278        H  0.19324540  0.47246985  0.03921152     0.18150
H279        H  0.28049118  0.02809534  0.94151809     0.18140
N280        N  0.29029435  0.09436559  0.98490056    -0.88570
H281        H  0.21482508  0.38441478  0.01072468     0.35520
H282        H  0.18492916  0.38517184  0.97577377     0.40620
H283        H  0.28982656  0.11478434  0.00508792     0.40240
H284        H  0.25975249  0.11625603  0.97016054     0.35130
O285        O  0.19246748  0.68025104  0.11921174    -0.74710
O286        O  0.18750892  0.57982013  0.05674739    -0.74740
O287        O  0.19035922  0.57788643  0.11814389    -0.74800
O288        O  0.18940212  0.68010026  0.05810322    -0.74850
O289        O  0.29864096  0.67049596  0.05656119    -0.74780
O290        O  0.29939694  0.56698980  0.11626791    -0.74760
O291        O  0.29699414  0.57036820  0.05478232    -0.74730
O292        O  0.30194577  0.66972732  0.11771103    -0.74800
Ni293      Ni  0.18608300  0.62980249  0.08837176     1.25410
Ni294      Ni  0.30319206  0.61892815  0.08656290     1.25360
C295        C  0.24802485  0.69285659  0.12774673     0.87470
C296        C  0.24146413  0.56109936  0.04432236     0.87400
C297        C  0.24479028  0.55449939  0.12664587     0.87430
C298        C  0.24359766  0.69014584  0.04624323     0.87600
C299        C  0.25389349  0.61879328  0.77854049    -0.02770
O300        O  0.19321867  0.82221697  0.86424650    -0.74710
O301        O  0.18358622  0.92498749  0.92575680    -0.74740
O302        O  0.18518870  0.92506534  0.86415137    -0.74800
O303        O  0.19205309  0.82421557  0.92553831    -0.74850
O304        O  0.30101804  0.82079392  0.92591206    -0.74780
O305        O  0.29433955  0.92004221  0.86398909    -0.74760
O306        O  0.29287518  0.92162917  0.92542639    -0.74730
O307        O  0.30261237  0.81748880  0.86468162    -0.74800
Ni308      Ni  0.18458724  0.87431440  0.89467748     1.25410
Ni309      Ni  0.30158962  0.86992445  0.89476921     1.25360
C310        C  0.24946203  0.80191254  0.85516254     0.87470
C311        C  0.23687645  0.93791256  0.93682964     0.87400
C312        C  0.23884089  0.93979231  0.85425674     0.87430
C313        C  0.24744800  0.80805767  0.93704461     0.87600
C314        C  0.24955493  0.87488087  0.20536453    -0.02770
O315        O  0.44952695  0.93753351  0.61744174    -0.74710
O316        O  0.44994824  0.83090489  0.55860724    -0.74740
O317        O  0.44960164  0.83485158  0.61995103    -0.74800
O318        O  0.45028890  0.93130672  0.55635174    -0.74850
O319        O  0.05958061  0.92319238  0.55659183    -0.74780
O320        O  0.05876347  0.82485891  0.61912845    -0.74760
O321        O  0.05927680  0.82279580  0.55770817    -0.74730
O322        O  0.05902270  0.92780185  0.61771496    -0.74800
Ni323      Ni  0.44595664  0.88393744  0.58835173     1.25410
Ni324      Ni  0.06306342  0.87428009  0.58804029     1.25360
C325        C  0.50417543  0.95130208  0.62639342     0.87470
C326        C  0.50461336  0.81131783  0.54725538     0.87400
C327        C  0.50401346  0.81257109  0.62937022     0.87430
C328        C  0.50512020  0.94189963  0.54532820     0.87600
O329        O  0.44783612  0.68079759  0.42670587    -0.74710
O330        O  0.44957185  0.57838543  0.36492959    -0.74740
O331        O  0.44958454  0.58017443  0.42613667    -0.74800
O332        O  0.44755160  0.68145416  0.36533568    -0.74850
O333        O  0.05679975  0.67277362  0.36416258    -0.74780
O334        O  0.05885109  0.57329254  0.42615459    -0.74760
O335        O  0.05906951  0.56977001  0.36495038    -0.74730
O336        O  0.05711504  0.67394354  0.42546177    -0.74800
Ni337      Ni  0.44473192  0.63053551  0.39553864     1.25410
Ni338      Ni  0.06184122  0.62220702  0.39491276     1.25360
C339        C  0.50235555  0.69261584  0.43714722     0.87470
C340        C  0.50466381  0.55578836  0.35581936     0.87400
C341        C  0.50443600  0.56162113  0.43707499     0.87430
C342        C  0.50180656  0.69477996  0.35519866     0.87600
C343        C  0.49790843  0.87466039  0.27707541    -0.02770
C344        C  0.50208307  0.63135476  0.70611896    -0.02770
C345        C  0.49923256  0.51637734  0.30505951    -0.26600
C346        C  0.50544708  0.51059227  0.33619166    -0.14680
C347        C  0.01304951  0.96149841  0.34818821     0.35950
C348        C  0.01127432  0.91970616  0.32887181    -0.26050
C349        C  0.49947967  0.92414081  0.29734314    -0.15290
C350        C  0.49722561  0.97464775  0.28542455     0.37040
N351        N  0.49269925  0.48616906  0.25378115    -0.89540
H352        H  0.49571090  0.55411686  0.29574610     0.18150
H353        H  0.01998557  0.88329644  0.33946316     0.18140
N354        N  0.02194658  0.95213805  0.37995631    -0.88570
H355        H  0.44967229  0.51033740  0.25057764     0.35520
H356        H  0.48781149  0.95457144  0.24062643     0.40620
H357        H  0.02137067  0.98546260  0.39257879     0.40240
H358        H  0.06843522  0.93246624  0.38266112     0.35130
C359        C  0.05158134  0.78679900  0.29601680    -0.26600
C360        C  0.49915424  0.82630877  0.29749172    -0.14680
C361        C  0.44477233  0.81846255  0.31679722     0.35950
C362        C  0.44662009  0.77477199  0.33452347    -0.26050
C363        C  0.50063453  0.73779202  0.33395121    -0.15290
C364        C  0.05311302  0.74346905  0.31400921     0.37040
N365        N  0.10738685  0.70458705  0.31147780    -0.89540
H366        H  0.09092097  0.78747897  0.27981360     0.18150
H367        H  0.40568495  0.77018734  0.34953004     0.18140
N368        N  0.38647181  0.85385106  0.31771176    -0.88570
H369        H  0.14261486  0.71468565  0.29610027     0.35520
H370        H  0.08942708  0.67222362  0.30260181     0.40620
H371        H  0.39679851  0.88644259  0.32920173     0.40240
H372        H  0.34903696  0.83955342  0.33009040     0.35130
C373        C  0.45180203  0.97535754  0.49851092    -0.26600
C374        C  0.50527968  0.97400156  0.51823075    -0.14680
C375        C  0.05932370  0.00029728  0.51061087     0.35950
C376        C  0.05872040  0.52697766  0.48340294    -0.26050
C377        C  0.50507348  0.52857081  0.46377404    -0.15290
C378        C  0.45127183  0.50194132  0.47127481     0.37040
N379        N  0.39669479  0.50137478  0.45111975    -0.89540
H380        H  0.41079205  0.95443897  0.50396504     0.18150
H381        H  0.09969733  0.54793840  0.47796348     0.18260
N382        N  0.11416142  0.00054125  0.53063740    -0.88570
H383        H  0.36100151  0.98043942  0.46018554     0.35520
H384        H  0.41400961  0.48255987  0.43128158     0.40620
H385        H  0.09729256  0.01952922  0.55047954     0.40240
H386        H  0.15004746  0.52116942  0.52145561     0.35130
C387        C  0.05550658  0.77977608  0.49869862    -0.26600
C388        C  0.50471398  0.77834439  0.52009674    -0.14680
C389        C  0.45225117  0.74974010  0.51368788     0.35950
C390        C  0.45141010  0.72376876  0.48588732    -0.26050
C391        C  0.50220485  0.72524470  0.46447522    -0.15290
C392        C  0.05461466  0.75391666  0.47088940     0.37040
N393        N  0.10616473  0.75738336  0.44900352    -0.89540
H394        H  0.09512986  0.80259241  0.50325119     0.18150
H395        H  0.41175675  0.70099682  0.48131005     0.18140
N396        N  0.40056776  0.74655492  0.53553883    -0.88570
H397        H  0.14107740  0.77977136  0.45732349     0.35520
H398        H  0.08524379  0.77598170  0.43015858     0.40620
H399        H  0.42133327  0.72810085  0.55446298     0.40240
H400        H  0.36564880  0.72415010  0.52724377     0.35130
C401        C  0.50470561  0.99087655  0.67705047    -0.26600
C402        C  0.50378018  0.99661079  0.64581320    -0.14680
C403        C  0.99925517  0.54568360  0.63367371     0.35950
C404        C  0.99753969  0.58764905  0.65317190    -0.26050
C405        C  0.50140207  0.58307132  0.68503758    -0.15290
C406        C  0.50142438  0.53270211  0.69669647     0.37040
N407        N  0.49555378  0.02184330  0.72818675    -0.89540
H408        H  0.50573274  0.95327862  0.68641130     0.18150
H409        H  0.99109269  0.62414942  0.64258883     0.18140
N410        N  0.99518909  0.55482721  0.60170427    -0.88570
H411        H  0.44832228  0.03470531  0.73554141     0.35520
H412        H  0.53032236  0.53814257  0.74094150     0.40620
H413        H  0.99616631  0.52138842  0.58913369     0.40240
H414        H  0.03681002  0.57179943  0.59529525     0.35130
C415        C  0.45253617  0.72184699  0.68933352    -0.26600
C416        C  0.50340905  0.68129275  0.68728677    -0.14680
C417        C  0.05760387  0.68861371  0.66800727     0.35950
C418        C  0.05723878  0.73227268  0.65044848    -0.26050
C419        C  0.50404399  0.77002165  0.65100201    -0.15290
C420        C  0.45152510  0.76507779  0.67118270     0.37040
N421        N  0.39776961  0.80436150  0.67383796    -0.89540
H422        H  0.41254051  0.72077143  0.70519861     0.18150
H423        H  0.09839796  0.73559463  0.63532974     0.18140
N424        N  0.11267530  0.65086623  0.66519226    -0.88570
H425        H  0.36731949  0.79774787  0.69213056     0.35520
H426        H  0.36894016  0.80220404  0.65460183     0.40620
H427        H  0.15482630  0.66733560  0.67127498     0.40240
H428        H  0.11766532  0.63950291  0.64251209     0.35130
C429        C  0.12640800  0.87288200  0.21001805    -0.26600
C430        C  0.18600162  0.87444501  0.22550377    -0.14680
C431        C  0.18276531  0.87202952  0.25778381     0.35950
C432        C  0.12149150  0.87437925  0.27242452    -0.26050
C433        C  0.06169683  0.87365395  0.25691960    -0.15290
C434        C  0.06546833  0.87429002  0.22470250     0.37040
N435        N  0.00855570  0.87890109  0.20604870    -0.89540
H436        H  0.12681943  0.87298649  0.18550772     0.18150
H437        H  0.12057022  0.87385205  0.29689215     0.18140
N438        N  0.24039381  0.86549078  0.27623037    -0.88570
H439        H  0.01176646  0.84801961  0.19106418     0.35520
H440        H  0.00928621  0.91156991  0.19315666     0.40620
H441        H  0.26258241  0.82862973  0.27302802     0.40240
H442        H  0.22869160  0.86903616  0.29925734     0.35130
C443        C  0.36252890  0.83362668  0.22323278    -0.26600
C444        C  0.31337098  0.87505157  0.22447208    -0.14680
C445        C  0.32657281  0.91718517  0.24296376     0.35950
C446        C  0.38307334  0.91461798  0.26046135    -0.26050
C447        C  0.43324323  0.87395973  0.25846835    -0.15290
C448        C  0.41937163  0.83140991  0.24045898     0.37040
N449        N  0.46102152  0.78448590  0.23890809    -0.89540
H450        H  0.35838889  0.80143325  0.20869139     0.18150
H451        H  0.38630243  0.94583879  0.27585996     0.18140
N452        N  0.28395674  0.96359412  0.24511684    -0.88570
H453        H  0.45662216  0.76466889  0.25889951     0.35520
H454        H  0.50969283  0.79030453  0.23474840     0.40620
H455        H  0.23573871  0.95688473  0.24964798     0.40240
H456        H  0.28676098  0.98385975  0.22519590     0.35130
C457        C  0.13807516  0.66171468  0.76378014    -0.26600
C458        C  0.19045662  0.62346732  0.75797290    -0.14680
C459        C  0.17839900  0.58679749  0.73529669     0.35950
C460        C  0.11867158  0.59057411  0.71992954    -0.26050
C461        C  0.06634575  0.62871976  0.72578273    -0.15290
C462        C  0.07891492  0.66619510  0.74784211     0.37040
N463        N  0.03351315  0.70968708  0.75551564    -0.89540
H464        H  0.14031620  0.68874449  0.78194202     0.18150
H465        H  0.11538285  0.56288325  0.70218650     0.18140
N466        N  0.22462546  0.54437219  0.72673969    -0.88570
H467        H  0.02114270  0.70753149  0.77841735     0.35520
H468        H  0.98979758  0.71075136  0.74397295     0.40620
H469        H  0.26875254  0.54432326  0.73780112     0.40240
H470        H  0.23582728  0.54770231  0.70379847     0.35130
C471        C  0.31785486  0.63024592  0.72829561    -0.26600
C472        C  0.31884699  0.62219922  0.75978843    -0.14680
C473        C  0.38070742  0.62325085  0.77411145     0.35950
C474        C  0.43808014  0.62643292  0.75704113    -0.26050
C475        C  0.43740969  0.63151552  0.72533420    -0.15290
C476        C  0.37524016  0.63276266  0.71116036     0.37040
N477        N  0.36964433  0.63679496  0.67897876    -0.89540
H478        H  0.27238149  0.63487847  0.71610856     0.18150
H479        H  0.48354066  0.62261311  0.76924979     0.18140
N480        N  0.38622218  0.62072778  0.80630983    -0.88570
H481        H  0.33771359  0.66898202  0.67414544     0.35520
H482        H  0.34857008  0.60521569  0.67090085     0.40620
H483        H  0.40458498  0.65376715  0.81391341     0.40240
H484        H  0.42043672  0.59029657  0.81179688     0.35130
C485        C  0.25346339  0.71358498  0.78723584    -0.26600
C486        C  0.25267805  0.66544584  0.80101939    -0.14680
C487        C  0.25685358  0.66487496  0.83355245     0.35950
C488        C  0.25623822  0.71026588  0.84976769    -0.26050
C489        C  0.25297110  0.75687776  0.83556678    -0.15290
C490        C  0.25279631  0.75878842  0.80385140     0.37040
N491        N  0.25119488  0.80555870  0.78770367    -0.89540
H492        H  0.25287791  0.71618854  0.76280579     0.18150
H493        H  0.25844868  0.70903713  0.87426084     0.18140
N494        N  0.26559568  0.62052322  0.85175485    -0.88570
H495        H  0.29466106  0.80444267  0.77505568     0.35520
H496        H  0.25052967  0.83661253  0.80238182     0.40620
H497        H  0.30295965  0.59386221  0.84386041     0.40240
H498        H  0.22101440  0.60662846  0.85629772     0.35130
C499        C  0.19139934  0.56069276  0.81069309    -0.26600
C500        C  0.25066314  0.56733941  0.79517841    -0.14680
C501        C  0.30020763  0.52514603  0.79502260     0.35950
C502        C  0.29367702  0.98384277  0.81379828    -0.26050
C503        C  0.23797492  0.98103107  0.83188147    -0.15290
C504        C  0.18487909  0.51894030  0.82932073     0.37040
N505        N  0.12585548  0.51670488  0.84682400    -0.89540
H506        H  0.15124119  0.59060886  0.81031646     0.18150
H507        H  0.33325262  0.95337022  0.81418082     0.18140
N508        N  0.35628736  0.52180395  0.77538076    -0.88570
H509        H  0.09095775  0.54692118  0.84167721     0.35520
H510        H  0.13763966  0.02128499  0.86956613     0.40620
H511        H  0.35485182  0.49017200  0.76124539     0.40240
H512        H  0.39842634  0.01528417  0.78851151     0.35130
C513        C  0.24484966  0.73409768  0.17853730    -0.26600
C514        C  0.24982230  0.73778616  0.14723227    -0.14680
C515        C  0.25351853  0.78519187  0.13412638     0.35950
C516        C  0.25101008  0.82854448  0.15265765    -0.26050
C517        C  0.25024690  0.82592515  0.18468928    -0.15290
C518        C  0.24529486  0.77708080  0.19728899     0.37040
N519        N  0.24062288  0.77064026  0.22927004    -0.89540
H520        H  0.24083472  0.69753737  0.18857429     0.18150
H521        H  0.24889818  0.86414762  0.14122947     0.18140
N522        N  0.25825893  0.78924794  0.10177472    -0.88570
H523        H  0.19675368  0.75542045  0.23403188     0.35520
H524        H  0.27947902  0.74455339  0.23593555     0.40620
H525        H  0.30317828  0.77001737  0.09489024     0.40240
H526        H  0.25953273  0.82690627  0.09546721     0.35130
C527        C  0.19347471  0.96156621  0.18557117    -0.26600
C528        C  0.24766956  0.92366384  0.18535449    -0.14680
C529        C  0.30274646  0.93301377  0.16712024     0.35950
C530        C  0.30083920  0.47623420  0.14913752    -0.26050
C531        C  0.24486518  0.51125164  0.14785356    -0.15290
C532        C  0.19031134  0.00358004  0.16634855     0.37040
N533        N  0.13191166  0.03874665  0.16610210    -0.89540
H534        H  0.15282317  0.95983289  0.20091808     0.18150
H535        H  0.34344322  0.48147221  0.13532527     0.18140
N536        N  0.36099759  0.89810732  0.16632790    -0.88570
H537        H  0.09898221  0.03034542  0.18302932     0.35520
H538        H  0.10821209  0.53334622  0.14567961     0.40620
H539        H  0.40004462  0.91768354  0.17305537     0.40240
H540        H  0.36986555  0.38584612  0.14398745     0.35130
C541        C  0.29958029  0.74425417  0.01103740    -0.26600
C542        C  0.24289950  0.72198884  0.01894690    -0.14680
C543        C  0.18859793  0.72678093  0.99925919     0.35950
C544        C  0.19201038  0.75438783  0.97257443    -0.26050
C545        C  0.24861357  0.77673311  0.96462359    -0.15290
C546        C  0.30298772  0.77193445  0.98431849     0.37040
N547        N  0.36097440  0.79593583  0.97763279    -0.89540
H548        H  0.34139526  0.74047553  0.02596077     0.18150
H549        H  0.15015281  0.75794393  0.95768074     0.18140
N550        N  0.13076323  0.70250305  0.00583931    -0.88570
H551        H  0.39703145  0.78699680  0.99384924     0.35520
H552        H  0.34827713  0.83502056  0.97931887     0.40620
H553        H  0.14375564  0.66344493  0.00421171     0.40240
H554        H  0.09476748  0.71124926  0.98956959     0.35130
C555        C  0.21191613  0.98482499  0.01783670    -0.26600
C556        C  0.23960342  0.53058281  0.01652004    -0.14680
C557        C  0.26375398  0.54681851  0.98848564     0.35950
C558        C  0.26132198  0.51589113  0.96283109    -0.26050
C559        C  0.23432883  0.96985884  0.96419581    -0.15290
C560        C  0.20972603  0.95376145  0.99218968     0.37040
N561        N  0.18404889  0.90588037  0.99587559    -0.89540
H562        H  0.19324285  0.97247113  0.03921105     0.18150
H563        H  0.28048626  0.52809671  0.94151766     0.18140
N564        N  0.29028861  0.59436734  0.98490002    -0.88570
H565        H  0.21481999  0.88441593  0.01072456     0.35520
H566        H  0.18492630  0.88517326  0.97577328     0.40620
H567        H  0.28982136  0.61478587  0.00508744     0.40240
H568        H  0.25974508  0.61625730  0.97016044     0.35130
O569        O  0.69246750  0.18025085  0.11921162    -0.74710
O570        O  0.68750999  0.07981960  0.05674742    -0.74740
O571        O  0.69035992  0.07788617  0.11814392    -0.74800
O572        O  0.68940257  0.18009972  0.05810307    -0.74850
O573        O  0.79864144  0.17049582  0.05656122    -0.74780
O574        O  0.79939766  0.06698992  0.11626810    -0.74760
O575        O  0.79699522  0.07036803  0.05478251    -0.74730
O576        O  0.80194580  0.16972752  0.11771108    -0.74800
Ni577      Ni  0.68608356  0.12980210  0.08837171     1.25410
Ni578      Ni  0.80319264  0.11892818  0.08656303     1.25360
C579        C  0.74802470  0.19285664  0.12774668     0.87470
C580        C  0.74146535  0.06109904  0.04432245     0.87400
C581        C  0.74479103  0.05449934  0.12664599     0.87430
C582        C  0.74359812  0.19014538  0.04624312     0.87600
C583        C  0.75389388  0.11879333  0.77854040    -0.02770
O584        O  0.69321881  0.32221680  0.86424645    -0.74710
O585        O  0.68358571  0.42498701  0.92575695    -0.74740
O586        O  0.68518838  0.42506520  0.86415150    -0.74800
O587        O  0.69205313  0.32421504  0.92553826    -0.74850
O588        O  0.80101806  0.32079380  0.92591208    -0.74780
O589        O  0.79433920  0.42004230  0.86398926    -0.74760
O590        O  0.79287464  0.42162911  0.92542655    -0.74730
O591        O  0.80261249  0.31748887  0.86468166    -0.74800
Ni592      Ni  0.68458707  0.37431406  0.89467753     1.25410
Ni593      Ni  0.80158943  0.36992445  0.89476931     1.25360
C594        C  0.74946226  0.30191252  0.85516251     0.87470
C595        C  0.73687582  0.43791232  0.93682978     0.87400
C596        C  0.73884052  0.43979230  0.85425689     0.87430
C597        C  0.74744810  0.30805725  0.93704454     0.87600
C598        C  0.74955375  0.37488100  0.20536448    -0.02770
O599        O  0.94952657  0.43753355  0.61744181    -0.74710
O600        O  0.94994779  0.33090501  0.55860726    -0.74740
O601        O  0.94960141  0.33485160  0.61995105    -0.74800
O602        O  0.95028833  0.43130686  0.55635181    -0.74850
O603        O  0.55958004  0.42319258  0.55659183    -0.74780
O604        O  0.55876325  0.32485904  0.61912840    -0.74760
O605        O  0.55927635  0.32279600  0.55770813    -0.74730
O606        O  0.55902231  0.42780198  0.61771496    -0.74800
Ni607      Ni  0.94595622  0.38393752  0.58835178     1.25410
Ni608      Ni  0.56306301  0.37428026  0.58804026     1.25360
C609        C  0.00417504  0.45130215  0.62639346     0.87470
C610        C  0.00461290  0.31131801  0.54725536     0.87400
C611        C  0.00401329  0.31257115  0.62937019     0.87430
C612        C  0.00511958  0.44189981  0.54532824     0.87600
O613        O  0.94783586  0.18079752  0.42670589    -0.74710
O614        O  0.94957220  0.07838527  0.36492962    -0.74740
O615        O  0.94958489  0.08017430  0.42613669    -0.74800
O616        O  0.94755129  0.18145405  0.36533570    -0.74850
O617        O  0.55679944  0.17277389  0.36416259    -0.74780
O618        O  0.55885142  0.07329278  0.42615463    -0.74760
O619        O  0.55906986  0.06977024  0.36495041    -0.74730
O620        O  0.55711476  0.17394384  0.42546177    -0.74800
Ni621      Ni  0.94473195  0.13053538  0.39553867     1.25410
Ni622      Ni  0.56184124  0.12220730  0.39491278     1.25360
C623        C  0.00235520  0.19261598  0.43714722     0.87470
C624        C  0.00466428  0.05578839  0.35581939     0.87400
C625        C  0.00443642  0.06162116  0.43707501     0.87430
C626        C  0.00180614  0.19478003  0.35519866     0.87600
C627        C  0.99790725  0.37466045  0.27707536    -0.02770
C628        C  0.00208344  0.13135474  0.70611888    -0.02770
C629        C  0.99923347  0.01637731  0.30505953    -0.26600
C630        C  0.00544783  0.01059228  0.33619169    -0.14680
C631        C  0.51304858  0.46149840  0.34818817     0.35950
C632        C  0.51127317  0.41970617  0.32887177    -0.26050
C633        C  0.99947849  0.42414086  0.29734310    -0.15290
C634        C  0.99722448  0.47464780  0.28542453     0.37040
N635        N  0.99270048  0.98616899  0.25378117    -0.89540
H636        H  0.99571173  0.05411683  0.29574612     0.18150
H637        H  0.51998432  0.38329645  0.33946311     0.18140
N638        N  0.52194571  0.45213801  0.37995627    -0.88570
H639        H  0.94967349  0.01033727  0.25057762     0.35520
H640        H  0.98781014  0.45457154  0.24062641     0.40620
H641        H  0.52136996  0.48546254  0.39257875     0.40240
H642        H  0.56843429  0.43246609  0.38266105     0.35130
C643        C  0.55158033  0.28679907  0.29601667    -0.26600
C644        C  0.99915317  0.32630879  0.29749164    -0.14680
C645        C  0.94477134  0.31846249  0.31679717     0.35950
C646        C  0.94661930  0.27477194  0.33452346    -0.26050
C647        C  0.00063385  0.23779206  0.33395118    -0.15290
C648        C  0.55311221  0.24346914  0.31400911     0.37040
N649        N  0.60738610  0.20458721  0.31147766    -0.89540
H650        H  0.59091987  0.28747906  0.27981343     0.18150
H651        H  0.90568424  0.27018722  0.34953006     0.18140
N652        N  0.88647072  0.35385089  0.31771172    -0.88570
H653        H  0.64261400  0.21468584  0.29610008     0.35520
H654        H  0.58942637  0.17222373  0.30260172     0.40620
H655        H  0.89679735  0.38644250  0.32920162     0.40240
H656        H  0.84903599  0.33955322  0.33009043     0.35130
C657        C  0.95180130  0.47535783  0.49851100    -0.26600
C658        C  0.00527901  0.47400178  0.51823081    -0.14680
C659        C  0.55932309  0.50029741  0.51061090     0.35950
C660        C  0.55872095  0.02697761  0.48340294    -0.26050
C661        C  0.00507405  0.02857073  0.46377402    -0.15290
C662        C  0.95127251  0.00194108  0.47127475     0.37040
N663        N  0.89669552  0.00137446  0.45111967    -0.89540
H664        H  0.91079126  0.45443934  0.50396515     0.18150
H665        H  0.59969781  0.04793844  0.47796350     0.18260
N666        N  0.61416085  0.50054135  0.53063741    -0.88570
H667        H  0.86100071  0.48043985  0.46018566     0.35520
H668        H  0.91401044  0.98255962  0.43128149     0.40620
H669        H  0.59729205  0.51952938  0.55047955     0.40240
H670        H  0.65004799  0.02116939  0.52145562     0.35130
C671        C  0.55550595  0.27977646  0.49869854    -0.26600
C672        C  0.00471349  0.27834461  0.52009670    -0.14680
C673        C  0.95225078  0.24974020  0.51368789     0.35950
C674        C  0.95140972  0.22376884  0.48588733    -0.26050
C675        C  0.00220437  0.22524491  0.46447519    -0.15290
C676        C  0.55461403  0.25391704  0.47088932     0.37040
N677        N  0.60616396  0.25738392  0.44900339    -0.89540
H678        H  0.59512913  0.30259291  0.50325107     0.18150
H679        H  0.91175648  0.20099678  0.48131010     0.18140
N680        N  0.90056749  0.24655489  0.53553888    -0.88570
H681        H  0.64107654  0.27977204  0.45732333     0.35520
H682        H  0.58524284  0.27598220  0.43015847     0.40620
H683        H  0.92133314  0.22810086  0.55446302     0.40240
H684        H  0.86564859  0.22414997  0.52724385     0.35130
C685        C  0.00470515  0.49087659  0.67705052    -0.26600
C686        C  0.00377979  0.49661084  0.64581326    -0.14680
C687        C  0.49925551  0.04568354  0.63367364     0.35950
C688        C  0.49754005  0.08764901  0.65317182    -0.26050
C689        C  0.00140247  0.08307130  0.68503750    -0.15290
C690        C  0.00142485  0.03270208  0.69669640     0.37040
N691        N  0.99555324  0.52184331  0.72818682    -0.89540
H692        H  0.00573222  0.45327865  0.68641135     0.18150
H693        H  0.49109302  0.12414937  0.64258875     0.18140
N694        N  0.49518937  0.05482714  0.60170420    -0.88570
H695        H  0.94832174  0.53470534  0.73554146     0.35520
H696        H  0.03032291  0.03814258  0.74094142     0.40620
H697        H  0.49616660  0.02138834  0.58913363     0.40240
H698        H  0.53681028  0.07179936  0.59529516     0.35130
C699        C  0.95253637  0.22184696  0.68933350    -0.26600
C700        C  0.00340930  0.18129275  0.68728670    -0.14680
C701        C  0.55760404  0.18861377  0.66800717     0.35950
C702        C  0.55723882  0.23227276  0.65044838    -0.26050
C703        C  0.00404397  0.27002168  0.65100196    -0.15290
C704        C  0.95152517  0.26507777  0.67118269     0.37040
N705        N  0.89776965  0.30436145  0.67383800    -0.89540
H706        H  0.91254079  0.22077138  0.70519862     0.18150
H707        H  0.59839794  0.23559476  0.63532962     0.18140
N708        N  0.61267553  0.15086635  0.66519213    -0.88570
H709        H  0.86731962  0.29774778  0.69213062     0.35520
H710        H  0.86894011  0.30220396  0.65460189     0.40620
H711        H  0.65482650  0.16733577  0.67127482     0.40240
H712        H  0.61766552  0.13950305  0.64251195     0.35130
C713        C  0.62640679  0.37288218  0.21001799    -0.26600
C714        C  0.68600041  0.37444517  0.22550371    -0.14680
C715        C  0.68276410  0.37202965  0.25778375     0.35950
C716        C  0.62149029  0.37437939  0.27242445    -0.26050
C717        C  0.56169562  0.37365408  0.25691953    -0.15290
C718        C  0.56546712  0.37429017  0.22470243     0.37040
N719        N  0.50855448  0.37890124  0.20604864    -0.89540
H720        H  0.62681822  0.37298667  0.18550765     0.18150
H721        H  0.62056901  0.37385217  0.29689209     0.18140
N722        N  0.74039259  0.36549086  0.27623031    -0.88570
H723        H  0.51176524  0.34801976  0.19106412     0.35520
H724        H  0.50928499  0.41157006  0.19315662     0.40620
H725        H  0.76258112  0.32862979  0.27302796     0.40240
H726        H  0.72869037  0.36903625  0.29925728     0.35130
C727        C  0.86252768  0.33362676  0.22323275    -0.26600
C728        C  0.81336978  0.37505166  0.22447205    -0.14680
C729        C  0.82657160  0.41718526  0.24296374     0.35950
C730        C  0.88307213  0.41461804  0.26046134    -0.26050
C731        C  0.93324202  0.37395980  0.25846832    -0.15290
C732        C  0.91937042  0.33140999  0.24045894     0.37040
N733        N  0.96102033  0.28448599  0.23890802    -0.89540
H734        H  0.85838767  0.30143334  0.20869136     0.18150
H735        H  0.88630124  0.44583885  0.27585995     0.18140
N736        N  0.78395556  0.46359422  0.24511681    -0.88570
H737        H  0.95662103  0.26466896  0.25889944     0.35520
H738        H  0.00969163  0.29030465  0.23474831     0.40620
H739        H  0.73573752  0.45688484  0.24964795     0.40240
H740        H  0.78675981  0.48385984  0.22519587     0.35130
C741        C  0.63807554  0.16171472  0.76378004    -0.26600
C742        C  0.69045702  0.12346737  0.75797280    -0.14680
C743        C  0.67839941  0.08679755  0.73529658     0.35950
C744        C  0.61867200  0.09057418  0.71992942    -0.26050
C745        C  0.56634614  0.12871979  0.72578263    -0.15290
C746        C  0.57891530  0.16619512  0.74784202     0.37040
N747        N  0.53351350  0.20968708  0.75551557    -0.89540
H748        H  0.64031658  0.18874453  0.78194193     0.18150
H749        H  0.61538329  0.06288333  0.70218637     0.18140
N750        N  0.72462587  0.04437225  0.72673957    -0.88570
H751        H  0.52114308  0.20753147  0.77841728     0.35520
H752        H  0.48979792  0.21075134  0.74397289     0.40620
H753        H  0.76875295  0.04432331  0.73780101     0.40240
H754        H  0.73582771  0.04770239  0.70379836     0.35130
C755        C  0.81785526  0.13024594  0.72829552    -0.26600
C756        C  0.81884738  0.12219927  0.75978834    -0.14680
C757        C  0.88070781  0.12325087  0.77411137     0.35950
C758        C  0.93808053  0.12643291  0.75704104    -0.26050
C759        C  0.93741008  0.13151547  0.72533412    -0.15290
C760        C  0.87524056  0.13276261  0.71116027     0.37040
N761        N  0.86964473  0.13679486  0.67897867    -0.89540
H762        H  0.77238188  0.13487852  0.71610847     0.18150
H763        H  0.98354106  0.12261309  0.76924971     0.18140
N764        N  0.88622256  0.12072782  0.80630975    -0.88570
H765        H  0.83771402  0.16898193  0.67414533     0.35520
H766        H  0.84857045  0.10521560  0.67090078     0.40620
H767        H  0.90458540  0.15376718  0.81391332     0.40240
H768        H  0.92043707  0.09029660  0.81179680     0.35130
C769        C  0.75346377  0.21358503  0.78723577    -0.26600
C770        C  0.75267844  0.16544587  0.80101931    -0.14680
C771        C  0.75685400  0.16487496  0.83355236     0.35950
C772        C  0.75623866  0.21026586  0.84976762    -0.26050
C773        C  0.75297152  0.25687776  0.83556672    -0.15290
C774        C  0.75279670  0.25878845  0.80385135     0.37040
N775        N  0.75119522  0.30555875  0.78770364    -0.89540
H776        H  0.75287828  0.21618860  0.76280572     0.18150
H777        H  0.75844912  0.20903709  0.87426077     0.18140
N778        N  0.76559607  0.12052321  0.85175475    -0.88570
H779        H  0.79466138  0.30444274  0.77505563     0.35520
H780        H  0.75053004  0.33661256  0.80238180     0.40620
H781        H  0.80296003  0.09386219  0.84386030     0.40240
H782        H  0.72101478  0.10662845  0.85629760     0.35130
C783        C  0.69139975  0.06069278  0.81069296    -0.26600
C784        C  0.75066355  0.06733945  0.79517829    -0.14680
C785        C  0.80020805  0.02514606  0.79502247     0.35950
C786        C  0.79367660  0.48384275  0.81379842    -0.26050
C787        C  0.73797451  0.48103106  0.83188162    -0.15290
C788        C  0.68487950  0.01894032  0.82932059     0.37040
N789        N  0.62585587  0.01670489  0.84682385    -0.89540
H790        H  0.65124160  0.09060888  0.81031634     0.18150
H791        H  0.83325220  0.45337020  0.81418095     0.18140
N792        N  0.85628778  0.02180399  0.77538063    -0.88570
H793        H  0.59095813  0.04692118  0.84167704     0.35520
H794        H  0.63763928  0.52128495  0.86956629     0.40620
H795        H  0.85485224  0.99017205  0.76124526     0.40240
H796        H  0.89842593  0.51528413  0.78851164     0.35130
C797        C  0.74484879  0.23409779  0.17853722    -0.26600
C798        C  0.74982172  0.23778627  0.14723220    -0.14680
C799        C  0.75351784  0.28519199  0.13412632     0.35950
C800        C  0.75100910  0.32854461  0.15265759    -0.26050
C801        C  0.75024574  0.32592528  0.18468922    -0.15290
C802        C  0.74529369  0.27708093  0.19728892     0.37040
N803        N  0.74062147  0.27064040  0.22926996    -0.89540
H804        H  0.74083389  0.19753747  0.18857421     0.18150
H805        H  0.74889717  0.36414776  0.14122941     0.18140
N806        N  0.75825846  0.28924805  0.10177467    -0.88570
H807        H  0.69675227  0.25542052  0.23403173     0.35520
H808        H  0.77947761  0.24455359  0.23593554     0.40620
H809        H  0.80317791  0.27001759  0.09489026     0.40240
H810        H  0.75953214  0.32690639  0.09546717     0.35130
C811        C  0.69347363  0.46156632  0.18557103    -0.26600
C812        C  0.74766848  0.42366396  0.18535443    -0.14680
C813        C  0.80274546  0.43301387  0.16712023     0.35950
C814        C  0.80084010  0.97623413  0.14913755    -0.26050
C815        C  0.74486608  0.01125158  0.14785367    -0.15290
C816        C  0.69031035  0.50358011  0.16634838     0.37040
N817        N  0.63191063  0.53874668  0.16610184    -0.89540
H818        H  0.65282201  0.45983302  0.20091790     0.18150
H819        H  0.84344403  0.98147216  0.13532525     0.18140
N820        N  0.86099660  0.39810742  0.16632795    -0.88570
H821        H  0.59898107  0.53034545  0.18302900     0.35520
H822        H  0.60821295  0.03334624  0.14567992     0.40620
H823        H  0.90004359  0.41768367  0.17305545     0.40240
H824        H  0.86986644  0.88584605  0.14398738     0.35130
C825        C  0.79958022  0.24425438  0.01103751    -0.26600
C826        C  0.74289995  0.22198814  0.01894670    -0.14680
C827        C  0.68859894  0.22677920  0.99925866     0.35950
C828        C  0.69201126  0.25438619  0.97257393    -0.26050
C829        C  0.74861386  0.27673252  0.96462345    -0.15290
C830        C  0.80298754  0.27193475  0.98431863     0.37040
N831        N  0.86097355  0.29593718  0.97763326    -0.89540
H832        H  0.84139479  0.24047648  0.02596113     0.18150
H833        H  0.65015410  0.25794157  0.95767999     0.18140
N834        N  0.63076497  0.20250020  0.00583845    -0.88570
H835        H  0.89703034  0.28699879  0.99384992     0.35520
H836        H  0.84827513  0.33502179  0.97931927     0.40620
H837        H  0.64375865  0.16344222  0.00421103     0.40240
H838        H  0.59476956  0.21124561  0.98956846     0.35130
C839        C  0.71191702  0.48482428  0.01783698    -0.26600
C840        C  0.73960490  0.03058255  0.01652009    -0.14680
C841        C  0.76375756  0.04681754  0.98848593     0.35950
C842        C  0.76132532  0.01589031  0.96283133    -0.26050
C843        C  0.73432792  0.46985870  0.96419590    -0.15290
C844        C  0.70972716  0.45376060  0.99219001     0.37040
N845        N  0.68405228  0.40587872  0.99587615    -0.89540
H846        H  0.69324540  0.47246986  0.03921152     0.18150
H847        H  0.78049118  0.02809534  0.94151809     0.18140
N848        N  0.79029435  0.09436559  0.98490056    -0.88570
H849        H  0.71482508  0.38441478  0.01072468     0.35520
H850        H  0.68492916  0.38517184  0.97577377     0.40620
H851        H  0.78982656  0.11478434  0.00508792     0.40240
H852        H  0.75975250  0.11625602  0.97016054     0.35130
O853        O  0.69246749  0.68025104  0.11921174    -0.74710
O854        O  0.68750892  0.57982013  0.05674739    -0.74740
O855        O  0.69035923  0.57788643  0.11814389    -0.74800
O856        O  0.68940212  0.68010026  0.05810322    -0.74850
O857        O  0.79864097  0.67049596  0.05656119    -0.74780
O858        O  0.79939695  0.56698980  0.11626791    -0.74760
O859        O  0.79699414  0.57036820  0.05478232    -0.74730
O860        O  0.80194577  0.66972732  0.11771103    -0.74800
Ni861      Ni  0.68608300  0.62980249  0.08837176     1.25410
Ni862      Ni  0.80319206  0.61892815  0.08656290     1.25360
C863        C  0.74802485  0.69285660  0.12774673     0.87470
C864        C  0.74146413  0.56109936  0.04432236     0.87400
C865        C  0.74479028  0.55449940  0.12664587     0.87430
C866        C  0.74359766  0.69014584  0.04624323     0.87600
C867        C  0.75389349  0.61879328  0.77854049    -0.02770
O868        O  0.69321867  0.82221697  0.86424650    -0.74710
O869        O  0.68358622  0.92498749  0.92575680    -0.74740
O870        O  0.68518871  0.92506534  0.86415137    -0.74800
O871        O  0.69205310  0.82421557  0.92553831    -0.74850
O872        O  0.80101805  0.82079392  0.92591206    -0.74780
O873        O  0.79433955  0.92004221  0.86398909    -0.74760
O874        O  0.79287518  0.92162917  0.92542639    -0.74730
O875        O  0.80261237  0.81748880  0.86468162    -0.74800
Ni876      Ni  0.68458724  0.87431440  0.89467748     1.25410
Ni877      Ni  0.80158962  0.86992445  0.89476921     1.25360
C878        C  0.74946203  0.80191254  0.85516254     0.87470
C879        C  0.73687645  0.93791256  0.93682964     0.87400
C880        C  0.73884089  0.93979231  0.85425674     0.87430
C881        C  0.74744801  0.80805766  0.93704461     0.87600
C882        C  0.74955493  0.87488087  0.20536453    -0.02770
O883        O  0.94952695  0.93753351  0.61744174    -0.74710
O884        O  0.94994824  0.83090488  0.55860724    -0.74740
O885        O  0.94960164  0.83485158  0.61995103    -0.74800
O886        O  0.95028890  0.93130672  0.55635174    -0.74850
O887        O  0.55958061  0.92319238  0.55659183    -0.74780
O888        O  0.55876347  0.82485891  0.61912845    -0.74760
O889        O  0.55927680  0.82279580  0.55770817    -0.74730
O890        O  0.55902270  0.92780185  0.61771496    -0.74800
Ni891      Ni  0.94595664  0.88393744  0.58835173     1.25410
Ni892      Ni  0.56306342  0.87428009  0.58804029     1.25360
C893        C  0.00417543  0.95130208  0.62639342     0.87470
C894        C  0.00461336  0.81131783  0.54725538     0.87400
C895        C  0.00401346  0.81257109  0.62937022     0.87430
C896        C  0.00512020  0.94189963  0.54532820     0.87600
O897        O  0.94783612  0.68079759  0.42670587    -0.74710
O898        O  0.94957185  0.57838543  0.36492959    -0.74740
O899        O  0.94958454  0.58017443  0.42613667    -0.74800
O900        O  0.94755160  0.68145416  0.36533568    -0.74850
O901        O  0.55679975  0.67277362  0.36416258    -0.74780
O902        O  0.55885109  0.57329254  0.42615459    -0.74760
O903        O  0.55906951  0.56977001  0.36495038    -0.74730
O904        O  0.55711504  0.67394354  0.42546177    -0.74800
Ni905      Ni  0.94473192  0.63053551  0.39553864     1.25410
Ni906      Ni  0.56184122  0.62220702  0.39491276     1.25360
C907        C  0.00235555  0.69261584  0.43714722     0.87470
C908        C  0.00466381  0.55578836  0.35581936     0.87400
C909        C  0.00443600  0.56162113  0.43707499     0.87430
C910        C  0.00180656  0.69477996  0.35519866     0.87600
C911        C  0.99790843  0.87466039  0.27707541    -0.02770
C912        C  0.00208307  0.63135476  0.70611896    -0.02770
C913        C  0.99923256  0.51637734  0.30505951    -0.26600
C914        C  0.00544708  0.51059227  0.33619166    -0.14680
C915        C  0.51304951  0.96149841  0.34818821     0.35950
C916        C  0.51127432  0.91970616  0.32887181    -0.26050
C917        C  0.99947967  0.92414081  0.29734314    -0.15290
C918        C  0.99722561  0.97464775  0.28542455     0.37040
N919        N  0.99269925  0.48616906  0.25378115    -0.89540
H920        H  0.99571090  0.55411686  0.29574610     0.18150
H921        H  0.51998557  0.88329644  0.33946316     0.18140
N922        N  0.52194658  0.95213805  0.37995631    -0.88570
H923        H  0.94967229  0.51033740  0.25057764     0.35520
H924        H  0.98781149  0.95457144  0.24062643     0.40620
H925        H  0.52137067  0.98546260  0.39257879     0.40240
H926        H  0.56843521  0.93246624  0.38266112     0.35130
C927        C  0.55158134  0.78679900  0.29601679    -0.26600
C928        C  0.99915424  0.82630877  0.29749172    -0.14680
C929        C  0.94477233  0.81846255  0.31679722     0.35950
C930        C  0.94662009  0.77477199  0.33452347    -0.26050
C931        C  0.00063453  0.73779202  0.33395121    -0.15290
C932        C  0.55311302  0.74346905  0.31400921     0.37040
N933        N  0.60738685  0.70458705  0.31147780    -0.89540
H934        H  0.59092097  0.78747897  0.27981360     0.18150
H935        H  0.90568495  0.77018734  0.34953004     0.18140
N936        N  0.88647181  0.85385106  0.31771176    -0.88570
H937        H  0.64261486  0.71468565  0.29610027     0.35520
H938        H  0.58942708  0.67222362  0.30260181     0.40620
H939        H  0.89679851  0.88644259  0.32920173     0.40240
H940        H  0.84903696  0.83955342  0.33009040     0.35130
C941        C  0.95180203  0.97535754  0.49851092    -0.26600
C942        C  0.00527968  0.97400156  0.51823075    -0.14680
C943        C  0.55932370  0.00029728  0.51061087     0.35950
C944        C  0.55872040  0.52697766  0.48340294    -0.26050
C945        C  0.00507348  0.52857081  0.46377404    -0.15290
C946        C  0.95127183  0.50194132  0.47127481     0.37040
N947        N  0.89669479  0.50137478  0.45111975    -0.89540
H948        H  0.91079205  0.95443897  0.50396504     0.18150
H949        H  0.59969733  0.54793840  0.47796348     0.18260
N950        N  0.61416142  0.00054125  0.53063740    -0.88570
H951        H  0.86100151  0.98043942  0.46018554     0.35520
H952        H  0.91400961  0.48255987  0.43128158     0.40620
H953        H  0.59729256  0.01952922  0.55047954     0.40240
H954        H  0.65004746  0.52116942  0.52145561     0.35130
C955        C  0.55550658  0.77977608  0.49869862    -0.26600
C956        C  0.00471399  0.77834439  0.52009674    -0.14680
C957        C  0.95225117  0.74974010  0.51368789     0.35950
C958        C  0.95141010  0.72376876  0.48588732    -0.26050
C959        C  0.00220485  0.72524470  0.46447522    -0.15290
C960        C  0.55461466  0.75391666  0.47088940     0.37040
N961        N  0.60616473  0.75738336  0.44900352    -0.89540
H962        H  0.59512986  0.80259240  0.50325119     0.18150
H963        H  0.91175676  0.70099682  0.48131005     0.18140
N964        N  0.90056777  0.74655492  0.53553883    -0.88570
H965        H  0.64107740  0.77977136  0.45732349     0.35520
H966        H  0.58524379  0.77598170  0.43015858     0.40620
H967        H  0.92133328  0.72810085  0.55446298     0.40240
H968        H  0.86564880  0.72415009  0.52724377     0.35130
C969        C  0.00470561  0.99087655  0.67705047    -0.26600
C970        C  0.00378018  0.99661079  0.64581320    -0.14680
C971        C  0.49925517  0.54568360  0.63367371     0.35950
C972        C  0.49753969  0.58764905  0.65317190    -0.26050
C973        C  0.00140207  0.58307132  0.68503758    -0.15290
C974        C  0.00142438  0.53270211  0.69669647     0.37040
N975        N  0.99555378  0.02184330  0.72818675    -0.89540
H976        H  0.00573274  0.95327862  0.68641130     0.18150
H977        H  0.49109269  0.62414942  0.64258883     0.18140
N978        N  0.49518909  0.55482721  0.60170427    -0.88570
H979        H  0.94832228  0.03470531  0.73554141     0.35520
H980        H  0.03032236  0.53814257  0.74094150     0.40620
H981        H  0.49616631  0.52138842  0.58913369     0.40240
H982        H  0.53681002  0.57179943  0.59529525     0.35130
C983        C  0.95253617  0.72184699  0.68933352    -0.26600
C984        C  0.00340905  0.68129275  0.68728677    -0.14680
C985        C  0.55760387  0.68861371  0.66800727     0.35950
C986        C  0.55723878  0.73227268  0.65044848    -0.26050
C987        C  0.00404399  0.77002165  0.65100201    -0.15290
C988        C  0.95152510  0.76507779  0.67118271     0.37040
N989        N  0.89776961  0.80436150  0.67383796    -0.89540
H990        H  0.91254051  0.72077143  0.70519861     0.18150
H991        H  0.59839796  0.73559463  0.63532974     0.18140
N992        N  0.61267530  0.65086623  0.66519226    -0.88570
H993        H  0.86731949  0.79774787  0.69213056     0.35520
H994        H  0.86894016  0.80220404  0.65460183     0.40620
H995        H  0.65482630  0.66733560  0.67127497     0.40240
H996        H  0.61766532  0.63950291  0.64251209     0.35130
C997        C  0.62640800  0.87288200  0.21001805    -0.26600
C998        C  0.68600162  0.87444501  0.22550377    -0.14680
C999        C  0.68276531  0.87202952  0.25778381     0.35950
C1000       C  0.62149150  0.87437925  0.27242452    -0.26050
C1001       C  0.56169683  0.87365395  0.25691960    -0.15290
C1002       C  0.56546833  0.87429002  0.22470250     0.37040
N1003       N  0.50855570  0.87890109  0.20604870    -0.89540
H1004       H  0.62681943  0.87298649  0.18550772     0.18150
H1005       H  0.62057022  0.87385205  0.29689215     0.18140
N1006       N  0.74039381  0.86549078  0.27623037    -0.88570
H1007       H  0.51176646  0.84801961  0.19106418     0.35520
H1008       H  0.50928621  0.91156991  0.19315666     0.40620
H1009       H  0.76258241  0.82862973  0.27302802     0.40240
H1010       H  0.72869160  0.86903616  0.29925734     0.35130
C1011       C  0.86252890  0.83362668  0.22323278    -0.26600
C1012       C  0.81337098  0.87505157  0.22447208    -0.14680
C1013       C  0.82657281  0.91718517  0.24296376     0.35950
C1014       C  0.88307334  0.91461798  0.26046136    -0.26050
C1015       C  0.93324323  0.87395973  0.25846835    -0.15290
C1016       C  0.91937163  0.83140991  0.24045898     0.37040
N1017       N  0.96102152  0.78448590  0.23890809    -0.89540
H1018       H  0.85838889  0.80143325  0.20869139     0.18150
H1019       H  0.88630243  0.94583879  0.27585996     0.18140
N1020       N  0.78395674  0.96359412  0.24511684    -0.88570
H1021       H  0.95662216  0.76466889  0.25889951     0.35520
H1022       H  0.00969283  0.79030453  0.23474840     0.40620
H1023       H  0.73573871  0.95688473  0.24964798     0.40240
H1024       H  0.78676098  0.98385975  0.22519590     0.35130
C1025       C  0.63807516  0.66171468  0.76378014    -0.26600
C1026       C  0.69045662  0.62346732  0.75797290    -0.14680
C1027       C  0.67839900  0.58679749  0.73529669     0.35950
C1028       C  0.61867158  0.59057411  0.71992954    -0.26050
C1029       C  0.56634575  0.62871976  0.72578273    -0.15290
C1030       C  0.57891492  0.66619510  0.74784211     0.37040
N1031       N  0.53351315  0.70968708  0.75551564    -0.89540
H1032       H  0.64031620  0.68874449  0.78194202     0.18150
H1033       H  0.61538285  0.56288325  0.70218650     0.18140
N1034       N  0.72462546  0.54437219  0.72673969    -0.88570
H1035       H  0.52114270  0.70753149  0.77841735     0.35520
H1036       H  0.48979758  0.71075136  0.74397295     0.40620
H1037       H  0.76875254  0.54432326  0.73780112     0.40240
H1038       H  0.73582728  0.54770231  0.70379847     0.35130
C1039       C  0.81785486  0.63024592  0.72829561    -0.26600
C1040       C  0.81884699  0.62219922  0.75978843    -0.14680
C1041       C  0.88070742  0.62325085  0.77411145     0.35950
C1042       C  0.93808014  0.62643292  0.75704113    -0.26050
C1043       C  0.93740969  0.63151552  0.72533420    -0.15290
C1044       C  0.87524016  0.63276266  0.71116036     0.37040
N1045       N  0.86964433  0.63679496  0.67897876    -0.89540
H1046       H  0.77238149  0.63487847  0.71610856     0.18150
H1047       H  0.98354066  0.62261311  0.76924979     0.18140
N1048       N  0.88622218  0.62072778  0.80630983    -0.88570
H1049       H  0.83771359  0.66898202  0.67414544     0.35520
H1050       H  0.84857008  0.60521569  0.67090085     0.40620
H1051       H  0.90458498  0.65376715  0.81391341     0.40240
H1052       H  0.92043672  0.59029657  0.81179688     0.35130
C1053       C  0.75346339  0.71358498  0.78723584    -0.26600
C1054       C  0.75267805  0.66544584  0.80101939    -0.14680
C1055       C  0.75685358  0.66487496  0.83355245     0.35950
C1056       C  0.75623822  0.71026588  0.84976769    -0.26050
C1057       C  0.75297110  0.75687776  0.83556678    -0.15290
C1058       C  0.75279631  0.75878842  0.80385140     0.37040
N1059       N  0.75119488  0.80555870  0.78770367    -0.89540
H1060       H  0.75287791  0.71618854  0.76280579     0.18150
H1061       H  0.75844868  0.70903713  0.87426084     0.18140
N1062       N  0.76559568  0.62052322  0.85175485    -0.88570
H1063       H  0.79466106  0.80444267  0.77505568     0.35520
H1064       H  0.75052967  0.83661253  0.80238182     0.40620
H1065       H  0.80295965  0.59386221  0.84386041     0.40240
H1066       H  0.72101440  0.60662846  0.85629772     0.35130
C1067       C  0.69139934  0.56069276  0.81069309    -0.26600
C1068       C  0.75066314  0.56733941  0.79517841    -0.14680
C1069       C  0.80020763  0.52514603  0.79502260     0.35950
C1070       C  0.79367702  0.98384277  0.81379828    -0.26050
C1071       C  0.73797492  0.98103107  0.83188147    -0.15290
C1072       C  0.68487909  0.51894030  0.82932073     0.37040
N1073       N  0.62585548  0.51670488  0.84682400    -0.89540
H1074       H  0.65124119  0.59060886  0.81031646     0.18150
H1075       H  0.83325262  0.95337023  0.81418082     0.18140
N1076       N  0.85628736  0.52180395  0.77538076    -0.88570
H1077       H  0.59095775  0.54692118  0.84167721     0.35520
H1078       H  0.63763966  0.02128499  0.86956613     0.40620
H1079       H  0.85485182  0.49017200  0.76124539     0.40240
H1080       H  0.89842635  0.01528417  0.78851151     0.35130
C1081       C  0.74484966  0.73409768  0.17853730    -0.26600
C1082       C  0.74982230  0.73778617  0.14723227    -0.14680
C1083       C  0.75351853  0.78519187  0.13412638     0.35950
C1084       C  0.75101008  0.82854448  0.15265765    -0.26050
C1085       C  0.75024690  0.82592515  0.18468928    -0.15290
C1086       C  0.74529486  0.77708080  0.19728899     0.37040
N1087       N  0.74062289  0.77064026  0.22927004    -0.89540
H1088       H  0.74083472  0.69753737  0.18857429     0.18150
H1089       H  0.74889818  0.86414762  0.14122947     0.18140
N1090       N  0.75825893  0.78924794  0.10177472    -0.88570
H1091       H  0.69675368  0.75542045  0.23403188     0.35520
H1092       H  0.77947902  0.74455339  0.23593555     0.40620
H1093       H  0.80317828  0.77001738  0.09489024     0.40240
H1094       H  0.75953273  0.82690627  0.09546721     0.35130
C1095       C  0.69347471  0.96156621  0.18557117    -0.26600
C1096       C  0.74766956  0.92366384  0.18535449    -0.14680
C1097       C  0.80274646  0.93301377  0.16712024     0.35950
C1098       C  0.80083920  0.47623420  0.14913752    -0.26050
C1099       C  0.74486519  0.51125164  0.14785356    -0.15290
C1100       C  0.69031134  0.00358004  0.16634855     0.37040
N1101       N  0.63191166  0.03874666  0.16610211    -0.89540
H1102       H  0.65282318  0.95983290  0.20091808     0.18150
H1103       H  0.84344322  0.48147221  0.13532527     0.18140
N1104       N  0.86099759  0.89810732  0.16632790    -0.88570
H1105       H  0.59898221  0.03034543  0.18302932     0.35520
H1106       H  0.60821210  0.53334622  0.14567961     0.40620
H1107       H  0.90004462  0.91768354  0.17305537     0.40240
H1108       H  0.86986555  0.38584612  0.14398745     0.35130
C1109       C  0.79958030  0.74425417  0.01103740    -0.26600
C1110       C  0.74289950  0.72198884  0.01894690    -0.14680
C1111       C  0.68859794  0.72678093  0.99925919     0.35950
C1112       C  0.69201039  0.75438783  0.97257443    -0.26050
C1113       C  0.74861358  0.77673311  0.96462359    -0.15290
C1114       C  0.80298772  0.77193445  0.98431849     0.37040
N1115       N  0.86097440  0.79593583  0.97763279    -0.89540
H1116       H  0.84139526  0.74047553  0.02596077     0.18150
H1117       H  0.65015281  0.75794392  0.95768074     0.18140
N1118       N  0.63076324  0.70250305  0.00583931    -0.88570
H1119       H  0.89703146  0.78699680  0.99384924     0.35520
H1120       H  0.84827713  0.83502056  0.97931887     0.40620
H1121       H  0.64375565  0.66344493  0.00421171     0.40240
H1122       H  0.59476749  0.71124926  0.98956959     0.35130
C1123       C  0.71191614  0.98482499  0.01783670    -0.26600
C1124       C  0.73960343  0.53058281  0.01652004    -0.14680
C1125       C  0.76375399  0.54681850  0.98848564     0.35950
C1126       C  0.76132198  0.51589113  0.96283109    -0.26050
C1127       C  0.73432884  0.96985884  0.96419581    -0.15290
C1128       C  0.70972603  0.95376145  0.99218968     0.37040
N1129       N  0.68404890  0.90588037  0.99587559    -0.89540
H1130       H  0.69324285  0.97247113  0.03921105     0.18150
H1131       H  0.78048627  0.52809671  0.94151766     0.18140
N1132       N  0.79028861  0.59436734  0.98490002    -0.88570
H1133       H  0.71482000  0.88441593  0.01072456     0.35520
H1134       H  0.68492631  0.88517326  0.97577328     0.40620
H1135       H  0.78982137  0.61478587  0.00508744     0.40240
H1136       H  0.75974509  0.61625730  0.97016044     0.35130
loop_ 
_geom_bond_atom_site_label_1 
_geom_bond_atom_site_label_2 
_geom_bond_distance 
_geom_bond_site_symmetry_2 
_ccdc_geom_bond_type 
O1           Ni9   1.918       .  S
O1           C11   1.280       .  A
O2           Ni9   1.917       .  S
O2           C12   1.281       .  A
O3           Ni9   1.914       .  S
O3           C13   1.280       .  A
O4           Ni9   1.909       .  S
O4           C14   1.280       .  A
O5          Ni10   1.915       .  S
O5           C14   1.282       .  A
O6          Ni10   1.924       .  S
O6           C13   1.284       .  A
O7          Ni10   1.913       .  S
O7           C12   1.280       .  A
O8          Ni10   1.917       .  S
O8           C11   1.280       .  A
Ni9         Ni10   2.388       .  S
C11         C230   1.470       .  S
C12         C272   1.469       .  S
C13         C247   1.492       .  S
C14         C258   1.482       .  S
C15         C174   1.589       .  S
C15         C188   1.574       .  S
C15         C202   1.579       .  S
C15         C216   1.568       .  S
O16         Ni24   1.915       .  S
O16          C26   1.280       .  A
O17         Ni24   1.913       .  S
O17          C27   1.280       .  A
O18         Ni24   1.921       .  S
O18          C28   1.282       .  A
O19         Ni24   1.914       .  S
O19          C29   1.282       .  A
O20         Ni25   1.910       .  S
O20          C29   1.280       .  A
O21         Ni25   1.911       .  S
O21          C28   1.281       .  A
O22         Ni25   1.914       .  S
O22          C27   1.280       .  A
O23         Ni25   1.916       .  S
O23          C26   1.280       .  A
Ni24        Ni25   2.390       .  S
C26         C205   1.466       .  S
C27         C275   1.469       .  S
C28         C219   1.484       .  S
C29         C261   1.484       .  S
C30         C146   1.573       .  S
C30         C160   1.564       .  S
C30         C233   1.582       .  S
C30         C244   1.576       .  S
O31         Ni39   1.918       .  S
O31          C41   1.280       .  A
O32         Ni39   1.913       .  S
O32          C42   1.280       .  A
O33         Ni39   1.920       .  S
O33          C43   1.281       .  A
O34         Ni39   1.913       .  S
O34          C44   1.282       .  A
O35         Ni40   1.912       .  S
O35         C612   1.280       .  A
O36         Ni40   1.921       .  S
O36         C611   1.283       .  A
O37         Ni40   1.915       .  S
O37         C610   1.282       .  A
O38         Ni40   1.920       .  S
O38         C609   1.281       .  A
Ni39       Ni608   2.387       .  S
Ni40       Ni607   2.387   1_455  S
C41         O606   1.281       .  A
C41         C118   1.471       .  S
C42         O605   1.282       .  A
C42         C104   1.480       .  S
C43         O604   1.283       .  A
C43         C135   1.490       .  S
C44         O603   1.280       .  A
C44          C90   1.479       .  S
O45         Ni53   1.916       .  S
O45          C55   1.282       .  A
O46         Ni53   1.922       .  S
O46          C56   1.281       .  A
O47         Ni53   1.910       .  S
O47          C57   1.280       .  A
O48         Ni53   1.918       .  S
O48          C58   1.282       .  A
O49         Ni54   1.919       .  S
O49         C626   1.282       .  A
O50         Ni54   1.913       .  S
O50         C625   1.282       .  A
O51         Ni54   1.919       .  S
O51         C624   1.280       .  A
O52         Ni54   1.912       .  S
O52         C623   1.281       .  A
Ni53       Ni622   2.388       .  S
Ni54       Ni621   2.388   1_455  S
C55         O620   1.281       .  A
C55         C107   1.480       .  S
C56         O619   1.280       .  A
C56          C62   1.474       .  S
C57         O618   1.282       .  A
C57          C93   1.479       .  S
C58         O617   1.282       .  A
C58          C79   1.487       .  S
C59          C65   1.588       .  S
C59          C76   1.578       .  S
C59         C163   1.569       .  S
C59         C717   1.574       .  S
C60         C121   1.580       .  S
C60         C132   1.578       .  S
C60         C191   1.568       .  S
C60         C745   1.581       .  S
C61          C62   1.393       .  A
C61         C350   1.406   1_545  A
C61          H68   1.085       .  S
C62         C915   1.408   1_545  A
C63          C64   1.398       .  A
C63         C914   1.408       .  A
C63          N70   1.440       .  S
C64         C633   1.422   1_455  A
C64          H69   1.079       .  S
C65          C66   1.445       .  A
C65         C632   1.422       .  A
C66         C345   1.406       .  A
C66         N351   1.438       .  S
N67         C350   1.438       .  S
N67          H71   1.046   1_565  S
N67         H356   1.031       .  S
N70          H73   1.041       .  S
N70          H74   1.046       .  S
H72         N351   1.031       .  S
C75          C80   1.405       .  A
C75         C644   1.421   1_455  A
C75          H82   1.076       .  S
C76          C77   1.433       .  A
C76         C643   1.421       .  A
C77          C78   1.406       .  A
C77          N84   1.440       .  S
C78          C79   1.400       .  A
C78          H83   1.084       .  S
C79         C648   1.407       .  A
C80         C647   1.407       .  A
C80          N81   1.439       .  S
N81          H85   1.046       .  S
N81          H86   1.046       .  S
N84          H87   1.042       .  S
N84          H88   1.046       .  S
C89          C90   1.405       .  A
C89         C378   1.403       .  A
C89          H96   1.084       .  S
C90         C659   1.412       .  A
C91         C658   1.412       .  A
C91         C376   1.403       .  A
C91          N98   1.438       .  S
C92         C375   1.403       .  A
C92         C661   1.405       .  A
C92          H97   1.084       .  S
C93          C94   1.412       .  A
C93         C660   1.405       .  A
C94         C373   1.403   1_545  A
C94          N95   1.438       .  S
N95         H100   1.046   1_545  S
N95         H383   1.046   1_545  S
N98         H101   1.045       .  S
N98         H386   1.046       .  S
H99         N379   1.046       .  S
H102        N382   1.046       .  S
C103        C108   1.404       .  A
C103        C672   1.405       .  A
C103        H110   1.084       .  S
C104        C105   1.411       .  A
C104        C671   1.405       .  A
C105        C106   1.405       .  A
C105        N112   1.438       .  S
C106        C107   1.406       .  A
C106        H111   1.084       .  S
C107        C676   1.412       .  A
C108        C675   1.412       .  A
C108        N109   1.438       .  S
N109        H113   1.046       .  S
N109        H114   1.046       .  S
N112        H115   1.046       .  S
N112        H116   1.046       .  S
C117        C118   1.392       .  A
C117        C406   1.400       .  A
C117        H124   1.085       .  S
C118        C971   1.411       .  A
C119        C120   1.400       .  A
C119        C970   1.411   1_645  A
C119        N126   1.439       .  S
C120        C689   1.418   1_655  A
C120        H125   1.078       .  S
C121        C122   1.441       .  A
C121        C688   1.418       .  A
C122        C401   1.400   1_545  A
C122        N407   1.432       .  S
N123        C406   1.432       .  S
N123        H127   1.040       .  S
N123        H412   1.040       .  S
N126        H129   1.042       .  S
N126        H130   1.046   1_655  S
H128        N407   1.040       .  S
C131        C132   1.420       .  A
C131        C136   1.408       .  A
C131        H138   1.078       .  S
C132        C701   1.426       .  A
C133        C134   1.403       .  A
C133        C700   1.426       .  A
C133        N140   1.432       .  S
C134        C703   1.401       .  A
C134        H139   1.084       .  S
C135        C136   1.411       .  A
C135        C702   1.401       .  A
C136        N137   1.439       .  S
N137        H141   1.046       .  S
N137        H142   1.045       .  S
N140        H143   1.046       .  S
N140        H144   1.046       .  S
C145        C146   1.410       .  A
C145        C150   1.400       .  A
C145        H152   1.084       .  S
C146        C147   1.431       .  A
C147        C148   1.404       .  A
C147        N154   1.438       .  S
C148        C149   1.412       .  A
C148        H153   1.083       .  S
C149        C627   1.574   1_455  S
C149        C150   1.427       .  A
C150        N151   1.431       .  S
N151        H155   1.046       .  S
N151        H156   1.046       .  S
N154        H157   1.043       .  S
N154        H158   1.045       .  S
C159        C160   1.412       .  A
C159        C164   1.395       .  A
C159        H166   1.076       .  S
C160        C161   1.431       .  A
C161        C162   1.395       .  A
C161        N168   1.436       .  S
C162        C163   1.412       .  A
C162        H167   1.076       .  S
C163        C164   1.431       .  A
C164        N165   1.436       .  S
N165        H169   1.043       .  S
N165        H170   1.041       .  S
N168        H171   1.041       .  S
N168        H172   1.042       .  S
C173        C174   1.418       .  A
C173        C178   1.403       .  A
C173        H180   1.077       .  S
C174        C175   1.433       .  A
C175        C176   1.401       .  A
C175        N182   1.439       .  S
C176        C177   1.416       .  A
C176        H181   1.078       .  S
C177        C628   1.581       .  S
C177        C178   1.432       .  A
C178        N179   1.441       .  S
N179        H183   1.046       .  S
N179        H184   1.033   1_455  S
N182        H185   1.032       .  S
N182        H186   1.045       .  S
C187        C188   1.412       .  A
C187        C192   1.402       .  A
C187        H194   1.078       .  S
C188        C189   1.426       .  A
C189        C190   1.403       .  A
C189        N196   1.432       .  S
C190        C191   1.411       .  A
C190        H195   1.077       .  S
C191        C192   1.423       .  A
C192        N193   1.434       .  S
N193        H197   1.046       .  S
N193        H198   1.046       .  S
N196        H199   1.046       .  S
N196        H200   1.045       .  S
C201        C202   1.426       .  A
C201        C206   1.401       .  A
C201        H208   1.084       .  S
C202        C203   1.443       .  A
C203        C204   1.396       .  A
C203        N210   1.432       .  S
C204        C205   1.391       .  A
C204        H209   1.086       .  S
C205        C206   1.405       .  A
C206        N207   1.439       .  S
N207        H211   1.046       .  S
N207        H212   1.044       .  S
N210        H213   1.042       .  S
N210        H214   1.041       .  S
C215        C216   1.419       .  A
C215        C220   1.407       .  A
C215        H222   1.083       .  S
C216        C217   1.431       .  A
C217        C502   1.401   1_545  A
C217        N224   1.430       .  S
C218        C219   1.398       .  A
C218        C501   1.401       .  A
C218        H223   1.084       .  S
C219        C504   1.409       .  A
C220        C503   1.409   1_545  A
C220        N221   1.438       .  S
N221        H225   1.046       .  S
N221        H510   1.046       .  S
N224        H227   1.046   1_545  S
N224        H512   1.046       .  S
H226        N505   1.046       .  S
H228        N508   1.046       .  S
C229        C230   1.393       .  A
C229        C234   1.406       .  A
C229        H236   1.084       .  S
C230        C231   1.402       .  A
C231        C232   1.404       .  A
C231        N238   1.440       .  S
C232        C233   1.420       .  A
C232        H237   1.075       .  S
C233        C234   1.432       .  A
C234        N235   1.431       .  S
N235        H239   1.046       .  S
N235        H240   1.046       .  S
N238        H241   1.046       .  S
N238        H242   1.045       .  S
C243        C244   1.418       .  A
C243        C248   1.408       .  A
C243        H250   1.076       .  S
C244        C245   1.427       .  A
C245        C530   1.402       .  A
C245        N252   1.432       .  S
C246        C247   1.401   1_565  A
C246        C529   1.402       .  A
C246        H251   1.084       .  S
C247        C532   1.414       .  A
C248        C531   1.414       .  A
C248        N249   1.439       .  S
N249        H253   1.046       .  S
N249        H538   1.045       .  S
N252        H255   1.044       .  S
N252        H540   1.046       .  S
H254        N533   1.045       .  S
H256        N536   1.046       .  S
C257        C258   1.403       .  A
C257        C262   1.404   1_554  A
C257        H264   1.084       .  S
C258        C259   1.416   1_554  A
C259        C260   1.402       .  A
C259        N266   1.439   1_556  S
C260        C261   1.403       .  A
C260        H265   1.083       .  S
C261        C262   1.417       .  A
C262        N263   1.438       .  S
N263        H267   1.046       .  S
N263        H268   1.046       .  S
N266        H269   1.046       .  S
N266        H270   1.046   1_554  S
C271        C276   1.400   1_554  A
C271        C556   1.398       .  A
C271        H278   1.084       .  S
C272        C273   1.420   1_554  A
C272        C555   1.398   1_545  A
C273        C274   1.399       .  A
C273        N280   1.439       .  S
C274        C559   1.398   1_545  A
C274        H279   1.085       .  S
C275        C276   1.421       .  A
C275        C558   1.398       .  A
C276        N277   1.439       .  S
N277        H281   1.046   1_556  S
N277        H282   1.040       .  S
N280        H283   1.040   1_556  S
N280        H284   1.046       .  S
O285       Ni293   1.918       .  S
O285        C295   1.280       .  A
O286       Ni293   1.917       .  S
O286        C296   1.281       .  A
O287       Ni293   1.914       .  S
O287        C297   1.280       .  A
O288       Ni293   1.909       .  S
O288        C298   1.280       .  A
O289       Ni294   1.915       .  S
O289        C298   1.282       .  A
O290       Ni294   1.924       .  S
O290        C297   1.284       .  A
O291       Ni294   1.913       .  S
O291        C296   1.280       .  A
O292       Ni294   1.917       .  S
O292        C295   1.280       .  A
Ni293      Ni294   2.388       .  S
C295        C514   1.470       .  S
C296        C556   1.469       .  S
C297        C531   1.492       .  S
C298        C542   1.482       .  S
C299        C458   1.589       .  S
C299        C472   1.574       .  S
C299        C486   1.579       .  S
C299        C500   1.568       .  S
O300       Ni308   1.915       .  S
O300        C310   1.280       .  A
O301       Ni308   1.913       .  S
O301        C311   1.280       .  A
O302       Ni308   1.921       .  S
O302        C312   1.282       .  A
O303       Ni308   1.914       .  S
O303        C313   1.282       .  A
O304       Ni309   1.910       .  S
O304        C313   1.280       .  A
O305       Ni309   1.911       .  S
O305        C312   1.281       .  A
O306       Ni309   1.914       .  S
O306        C311   1.280       .  A
O307       Ni309   1.916       .  S
O307        C310   1.280       .  A
Ni308      Ni309   2.390       .  S
C310        C489   1.466       .  S
C311        C559   1.469       .  S
C312        C503   1.484       .  S
C313        C545   1.484       .  S
C314        C430   1.573       .  S
C314        C444   1.564       .  S
C314        C517   1.582       .  S
C314        C528   1.576       .  S
O315       Ni323   1.918       .  S
O315        C325   1.280       .  A
O316       Ni323   1.913       .  S
O316        C326   1.280       .  A
O317       Ni323   1.920       .  S
O317        C327   1.281       .  A
O318       Ni323   1.913       .  S
O318        C328   1.282       .  A
O319       Ni324   1.912       .  S
O319        C896   1.280       .  A
O320       Ni324   1.921       .  S
O320        C895   1.283       .  A
O321       Ni324   1.915       .  S
O321        C894   1.282       .  A
O322       Ni324   1.920       .  S
O322        C893   1.281       .  A
Ni323      Ni892   2.387       .  S
Ni324      Ni891   2.387   1_455  S
C325        O890   1.281       .  A
C325        C402   1.471       .  S
C326        O889   1.282       .  A
C326        C388   1.480       .  S
C327        O888   1.283       .  A
C327        C419   1.490       .  S
C328        O887   1.280       .  A
C328        C374   1.479       .  S
O329       Ni337   1.916       .  S
O329        C339   1.282       .  A
O330       Ni337   1.922       .  S
O330        C340   1.281       .  A
O331       Ni337   1.910       .  S
O331        C341   1.280       .  A
O332       Ni337   1.918       .  S
O332        C342   1.282       .  A
O333       Ni338   1.919       .  S
O333        C910   1.282       .  A
O334       Ni338   1.913       .  S
O334        C909   1.282       .  A
O335       Ni338   1.919       .  S
O335        C908   1.280       .  A
O336       Ni338   1.912       .  S
O336        C907   1.281       .  A
Ni337      Ni906   2.388       .  S
Ni338      Ni905   2.388   1_455  S
C339        O904   1.281       .  A
C339        C391   1.480       .  S
C340        O903   1.280       .  A
C340        C346   1.474       .  S
C341        O902   1.282       .  A
C341        C377   1.479       .  S
C342        O901   1.282       .  A
C342        C363   1.487       .  S
C343        C349   1.588       .  S
C343        C360   1.578       .  S
C343       C1001   1.574       .  S
C343        C447   1.569       .  S
C344        C405   1.580       .  S
C344        C416   1.578       .  S
C344       C1029   1.581       .  S
C344        C475   1.568       .  S
C345        C346   1.393       .  A
C345        H352   1.085       .  S
C346        C631   1.408       .  A
C347        C630   1.408   1_565  A
C347        C348   1.398       .  A
C347        N354   1.440       .  S
C348        C917   1.422   1_455  A
C348        H353   1.079       .  S
C349        C916   1.422       .  A
C349        C350   1.445       .  A
N351        H355   1.046       .  S
N354        H357   1.041       .  S
N354        H358   1.046       .  S
C359        C928   1.421   1_455  A
C359        C364   1.405       .  A
C359        H366   1.076       .  S
C360        C927   1.421       .  A
C360        C361   1.433       .  A
C361        C362   1.406       .  A
C361        N368   1.440       .  S
C362        C363   1.400       .  A
C362        H367   1.084       .  S
C363        C932   1.407       .  A
C364        C931   1.407       .  A
C364        N365   1.439       .  S
N365        H369   1.046       .  S
N365        H370   1.046       .  S
N368        H371   1.042       .  S
N368        H372   1.046       .  S
C373        C374   1.405       .  A
C373        H380   1.084       .  S
C374        C943   1.412   1_565  A
C375        C942   1.412   1_545  A
C375        N382   1.438       .  S
C376        C945   1.405       .  A
C376        H381   1.084       .  S
C377        C944   1.405       .  A
C377        C378   1.412       .  A
C378        N379   1.438       .  S
N379        H384   1.046       .  S
N382        H385   1.045       .  S
C387        C956   1.405       .  A
C387        C392   1.404       .  A
C387        H394   1.084       .  S
C388        C955   1.405       .  A
C388        C389   1.411       .  A
C389        C390   1.405       .  A
C389        N396   1.438       .  S
C390        C391   1.406       .  A
C390        H395   1.084       .  S
C391        C960   1.412       .  A
C392        C959   1.412       .  A
C392        N393   1.438       .  S
N393        H397   1.046       .  S
N393        H398   1.046       .  S
N396        H399   1.046       .  S
N396        H400   1.046       .  S
C401        C402   1.392       .  A
C401        H408   1.085       .  S
C402        C687   1.411   1_565  A
C403        C686   1.411   1_655  A
C403        C404   1.400       .  A
C403        N410   1.439       .  S
C404        C973   1.418   1_655  A
C404        H409   1.078       .  S
C405        C972   1.418       .  A
C405        C406   1.441       .  A
N407        H411   1.040       .  S
N410        H413   1.042       .  S
N410        H414   1.046   1_655  S
C415        C416   1.420       .  A
C415        C420   1.408       .  A
C415        H422   1.078       .  S
C416        C985   1.426       .  A
C417        C984   1.426       .  A
C417        C418   1.403       .  A
C417        N424   1.432       .  S
C418        C987   1.401       .  A
C418        H423   1.084       .  S
C419        C986   1.401       .  A
C419        C420   1.411       .  A
C420        N421   1.439       .  S
N421        H425   1.046       .  S
N421        H426   1.045       .  S
N424        H427   1.046       .  S
N424        H428   1.046       .  S
C429        C430   1.410       .  A
C429        C434   1.400       .  A
C429        H436   1.084       .  S
C430        C431   1.431       .  A
C431        C432   1.404       .  A
C431        N438   1.438       .  S
C432        C433   1.412       .  A
C432        H437   1.083       .  S
C433        C911   1.574   1_455  S
C433        C434   1.427       .  A
C434        N435   1.431       .  S
N435        H439   1.046       .  S
N435        H440   1.046       .  S
N438        H441   1.043       .  S
N438        H442   1.045       .  S
C443        C444   1.412       .  A
C443        C448   1.395       .  A
C443        H450   1.076       .  S
C444        C445   1.431       .  A
C445        C446   1.395       .  A
C445        N452   1.436       .  S
C446        C447   1.412       .  A
C446        H451   1.076       .  S
C447        C448   1.431       .  A
C448        N449   1.436       .  S
N449        H453   1.043       .  S
N449        H454   1.041       .  S
N452        H455   1.041       .  S
N452        H456   1.042       .  S
C457        C458   1.418       .  A
C457        C462   1.403       .  A
C457        H464   1.077       .  S
C458        C459   1.433       .  A
C459        C460   1.401       .  A
C459        N466   1.439       .  S
C460        C461   1.416       .  A
C460        H465   1.078       .  S
C461        C912   1.581       .  S
C461        C462   1.432       .  A
C462        N463   1.441       .  S
N463        H467   1.046       .  S
N463        H468   1.033   1_455  S
N466        H469   1.032       .  S
N466        H470   1.045       .  S
C471        C472   1.412       .  A
C471        C476   1.402       .  A
C471        H478   1.078       .  S
C472        C473   1.426       .  A
C473        C474   1.403       .  A
C473        N480   1.432       .  S
C474        C475   1.411       .  A
C474        H479   1.077       .  S
C475        C476   1.423       .  A
C476        N477   1.434       .  S
N477        H481   1.046       .  S
N477        H482   1.046       .  S
N480        H483   1.046       .  S
N480        H484   1.045       .  S
C485        C486   1.426       .  A
C485        C490   1.401       .  A
C485        H492   1.084       .  S
C486        C487   1.443       .  A
C487        C488   1.396       .  A
C487        N494   1.432       .  S
C488        C489   1.391       .  A
C488        H493   1.086       .  S
C489        C490   1.405       .  A
C490        N491   1.439       .  S
N491        H495   1.046       .  S
N491        H496   1.044       .  S
N494        H497   1.042       .  S
N494        H498   1.041       .  S
C499        C500   1.419       .  A
C499        C504   1.407       .  A
C499        H506   1.083       .  S
C500        C501   1.431       .  A
C501        N508   1.430       .  S
C502        C503   1.398       .  A
C502        H507   1.084       .  S
C504        N505   1.438       .  S
N505        H509   1.046       .  S
N508        H511   1.046       .  S
C513        C514   1.393       .  A
C513        C518   1.406       .  A
C513        H520   1.084       .  S
C514        C515   1.402       .  A
C515        C516   1.404       .  A
C515        N522   1.440       .  S
C516        C517   1.420       .  A
C516        H521   1.075       .  S
C517        C518   1.432       .  A
C518        N519   1.431       .  S
N519        H523   1.046       .  S
N519        H524   1.046       .  S
N522        H525   1.046       .  S
N522        H526   1.045       .  S
C527        C528   1.418       .  A
C527        C532   1.408   1_565  A
C527        H534   1.076       .  S
C528        C529   1.427       .  A
C529        N536   1.432       .  S
C530        C531   1.401       .  A
C530        H535   1.084       .  S
C532        N533   1.439       .  S
N533        H537   1.046       .  S
N536        H539   1.044       .  S
C541        C542   1.403       .  A
C541        C546   1.404   1_554  A
C541        H548   1.084       .  S
C542        C543   1.416   1_554  A
C543        C544   1.402       .  A
C543        N550   1.439   1_556  S
C544        C545   1.403       .  A
C544        H549   1.083       .  S
C545        C546   1.417       .  A
C546        N547   1.438       .  S
N547        H551   1.046       .  S
N547        H552   1.046       .  S
N550        H553   1.046       .  S
N550        H554   1.046   1_554  S
C555        C560   1.400   1_554  A
C555        H562   1.084       .  S
C556        C557   1.420   1_554  A
C557        C558   1.399       .  A
C557        N564   1.439       .  S
C558        H563   1.085       .  S
C559        C560   1.421       .  A
C560        N561   1.439       .  S
N561        H565   1.046   1_556  S
N561        H566   1.040       .  S
N564        H567   1.040   1_556  S
N564        H568   1.046       .  S
O569       Ni577   1.918       .  S
O569        C579   1.280       .  A
O570       Ni577   1.917       .  S
O570        C580   1.281       .  A
O571       Ni577   1.914       .  S
O571        C581   1.280       .  A
O572       Ni577   1.909       .  S
O572        C582   1.280       .  A
O573       Ni578   1.915       .  S
O573        C582   1.282       .  A
O574       Ni578   1.924       .  S
O574        C581   1.284       .  A
O575       Ni578   1.913       .  S
O575        C580   1.280       .  A
O576       Ni578   1.917       .  S
O576        C579   1.280       .  A
Ni577      Ni578   2.388       .  S
C579        C798   1.470       .  S
C580        C840   1.469       .  S
C581        C815   1.492       .  S
C582        C826   1.482       .  S
C583        C742   1.589       .  S
C583        C756   1.574       .  S
C583        C770   1.579       .  S
C583        C784   1.568       .  S
O584       Ni592   1.915       .  S
O584        C594   1.280       .  A
O585       Ni592   1.913       .  S
O585        C595   1.280       .  A
O586       Ni592   1.921       .  S
O586        C596   1.282       .  A
O587       Ni592   1.914       .  S
O587        C597   1.282       .  A
O588       Ni593   1.910       .  S
O588        C597   1.280       .  A
O589       Ni593   1.911       .  S
O589        C596   1.281       .  A
O590       Ni593   1.914       .  S
O590        C595   1.280       .  A
O591       Ni593   1.916       .  S
O591        C594   1.280       .  A
Ni592      Ni593   2.390       .  S
C594        C773   1.466       .  S
C595        C843   1.469       .  S
C596        C787   1.484       .  S
C597        C829   1.484       .  S
C598        C714   1.573       .  S
C598        C728   1.564       .  S
C598        C801   1.582       .  S
C598        C812   1.576       .  S
O599       Ni607   1.918       .  S
O599        C609   1.280   1_655  A
O600       Ni607   1.913       .  S
O600        C610   1.280   1_655  A
O601       Ni607   1.920       .  S
O601        C611   1.281   1_655  A
O602       Ni607   1.913       .  S
O602        C612   1.282   1_655  A
O603       Ni608   1.912       .  S
O604       Ni608   1.921       .  S
O605       Ni608   1.915       .  S
O606       Ni608   1.920       .  S
C609        C686   1.471       .  S
C610        C672   1.480       .  S
C611        C703   1.490       .  S
C612        C658   1.479       .  S
O613       Ni621   1.916       .  S
O613        C623   1.282   1_655  A
O614       Ni621   1.922       .  S
O614        C624   1.281   1_655  A
O615       Ni621   1.910       .  S
O615        C625   1.280   1_655  A
O616       Ni621   1.918       .  S
O616        C626   1.282   1_655  A
O617       Ni622   1.919       .  S
O618       Ni622   1.913       .  S
O619       Ni622   1.919       .  S
O620       Ni622   1.912       .  S
C623        C675   1.480       .  S
C624        C630   1.474       .  S
C625        C661   1.479       .  S
C626        C647   1.487       .  S
C627        C633   1.588       .  S
C627        C644   1.578       .  S
C627        C731   1.569       .  S
C628        C689   1.580       .  S
C628        C700   1.578       .  S
C628        C759   1.568   1_455  S
C629        C630   1.393   1_655  A
C629        C918   1.406   1_545  A
C629        H636   1.085       .  S
C631        C632   1.398       .  A
C631        N638   1.440       .  S
C632        H637   1.079       .  S
C633        C634   1.445       .  A
C634        C913   1.406       .  A
C634        N919   1.438       .  S
N635        C918   1.438       .  S
N635        H639   1.046   1_565  S
N635        H924   1.031       .  S
N638        H641   1.041       .  S
N638        H642   1.046       .  S
H640        N919   1.031       .  S
C643        C648   1.405       .  A
C643        H650   1.076       .  S
C644        C645   1.433       .  A
C645        C646   1.406       .  A
C645        N652   1.440       .  S
C646        C647   1.400   1_655  A
C646        H651   1.084       .  S
C648        N649   1.439       .  S
N649        H653   1.046       .  S
N649        H654   1.046       .  S
N652        H655   1.042       .  S
N652        H656   1.046       .  S
C657        C658   1.405   1_655  A
C657        C946   1.403       .  A
C657        H664   1.084       .  S
C659        C944   1.403       .  A
C659        N666   1.438       .  S
C660        C943   1.403       .  A
C660        H665   1.084       .  S
C661        C662   1.412   1_455  A
C662        C941   1.403   1_545  A
C662        N663   1.438       .  S
N663        H951   1.046   1_545  S
N663        H668   1.046   1_545  S
N666        H669   1.045       .  S
N666        H954   1.046       .  S
H667        N947   1.046       .  S
H670        N950   1.046       .  S
C671        C676   1.404       .  A
C671        H678   1.084       .  S
C672        C673   1.411   1_455  A
C673        C674   1.405       .  A
C673        N680   1.438       .  S
C674        C675   1.406   1_655  A
C674        H679   1.084       .  S
C676        N677   1.438       .  S
N677        H681   1.046       .  S
N677        H682   1.046       .  S
N680        H683   1.046       .  S
N680        H684   1.046       .  S
C685        C686   1.392       .  A
C685        C974   1.400       .  A
C685        H692   1.085       .  S
C687        C688   1.400       .  A
C687        N694   1.439       .  S
C688        H693   1.078       .  S
C689        C690   1.441       .  A
C690        C969   1.400   1_545  A
C690        N975   1.432   1_455  S
N691        C974   1.432   1_655  S
N691        H695   1.040       .  S
N691        H980   1.040   1_655  S
N694        H697   1.042       .  S
N694        H698   1.046       .  S
H696        N975   1.040   1_455  S
C699        C700   1.420   1_655  A
C699        C704   1.408       .  A
C699        H706   1.078       .  S
C701        C702   1.403       .  A
C701        N708   1.432       .  S
C702        H707   1.084       .  S
C703        C704   1.411   1_455  A
C704        N705   1.439       .  S
N705        H709   1.046       .  S
N705        H710   1.045       .  S
N708        H711   1.046       .  S
N708        H712   1.046       .  S
C713        C714   1.410       .  A
C713        C718   1.400       .  A
C713        H720   1.084       .  S
C714        C715   1.431       .  A
C715        C716   1.404       .  A
C715        N722   1.438       .  S
C716        C717   1.412       .  A
C716        H721   1.083       .  S
C717        C718   1.427       .  A
C718        N719   1.431       .  S
N719        H723   1.046       .  S
N719        H724   1.046       .  S
N722        H725   1.043       .  S
N722        H726   1.045       .  S
C727        C728   1.412       .  A
C727        C732   1.395       .  A
C727        H734   1.076       .  S
C728        C729   1.431       .  A
C729        C730   1.395       .  A
C729        N736   1.436       .  S
C730        C731   1.412       .  A
C730        H735   1.076       .  S
C731        C732   1.431       .  A
C732        N733   1.436       .  S
N733        H737   1.043       .  S
N733        H738   1.041   1_655  S
N736        H739   1.041       .  S
N736        H740   1.042       .  S
C741        C742   1.418       .  A
C741        C746   1.403       .  A
C741        H748   1.077       .  S
C742        C743   1.433       .  A
C743        C744   1.401       .  A
C743        N750   1.439       .  S
C744        C745   1.416       .  A
C744        H749   1.078       .  S
C745        C746   1.432       .  A
C746        N747   1.441       .  S
N747        H751   1.046       .  S
N747        H752   1.033       .  S
N750        H753   1.032       .  S
N750        H754   1.045       .  S
C755        C756   1.412       .  A
C755        C760   1.402       .  A
C755        H762   1.078       .  S
C756        C757   1.426       .  A
C757        C758   1.403       .  A
C757        N764   1.432       .  S
C758        C759   1.411       .  A
C758        H763   1.077       .  S
C759        C760   1.423       .  A
C760        N761   1.434       .  S
N761        H765   1.046       .  S
N761        H766   1.046       .  S
N764        H767   1.046       .  S
N764        H768   1.045       .  S
C769        C770   1.426       .  A
C769        C774   1.401       .  A
C769        H776   1.084       .  S
C770        C771   1.443       .  A
C771        C772   1.396       .  A
C771        N778   1.432       .  S
C772        C773   1.391       .  A
C772        H777   1.086       .  S
C773        C774   1.405       .  A
C774        N775   1.439       .  S
N775        H779   1.046       .  S
N775        H780   1.044       .  S
N778        H781   1.042       .  S
N778        H782   1.041       .  S
C783        C784   1.419       .  A
C783        C788   1.407       .  A
C783        H790   1.083       .  S
C784        C785   1.431       .  A
C785       C1070   1.401   1_545  A
C785        N792   1.430       .  S
C786       C1069   1.401       .  A
C786        C787   1.398       .  A
C786        H791   1.084       .  S
C787       C1072   1.409       .  A
C788       C1071   1.409   1_545  A
C788        N789   1.438       .  S
N789        H793   1.046       .  S
N789       H1078   1.046       .  S
N792        H795   1.046   1_545  S
N792       H1080   1.046       .  S
H794       N1073   1.046       .  S
H796       N1076   1.046       .  S
C797        C798   1.393       .  A
C797        C802   1.406       .  A
C797        H804   1.084       .  S
C798        C799   1.402       .  A
C799        C800   1.404       .  A
C799        N806   1.440       .  S
C800        C801   1.420       .  A
C800        H805   1.075       .  S
C801        C802   1.432       .  A
C802        N803   1.431       .  S
N803        H807   1.046       .  S
N803        H808   1.046       .  S
N806        H809   1.046       .  S
N806        H810   1.045       .  S
C811        C812   1.418       .  A
C811        C816   1.408       .  A
C811        H818   1.076       .  S
C812        C813   1.427       .  A
C813       C1098   1.402       .  A
C813        N820   1.432       .  S
C814       C1097   1.402       .  A
C814        C815   1.401   1_565  A
C814        H819   1.084       .  S
C815       C1100   1.414       .  A
C816       C1099   1.414       .  A
C816        N817   1.439       .  S
N817        H821   1.046       .  S
N817       H1106   1.045       .  S
N820        H823   1.044       .  S
N820       H1108   1.046       .  S
H822       N1101   1.045       .  S
H824       N1104   1.046       .  S
C825        C826   1.403       .  A
C825        C830   1.404   1_554  A
C825        H832   1.084       .  S
C826        C827   1.416   1_554  A
C827        C828   1.402       .  A
C827        N834   1.439   1_556  S
C828        C829   1.403       .  A
C828        H833   1.083       .  S
C829        C830   1.417       .  A
C830        N831   1.438       .  S
N831        H835   1.046       .  S
N831        H836   1.046       .  S
N834        H837   1.046       .  S
N834        H838   1.046   1_554  S
C839       C1124   1.398       .  A
C839        C844   1.400   1_554  A
C839        H846   1.084       .  S
C840       C1123   1.398   1_545  A
C840        C841   1.420   1_554  A
C841        C842   1.399       .  A
C841        N848   1.439       .  S
C842       C1127   1.398   1_545  A
C842        H847   1.085       .  S
C843       C1126   1.398       .  A
C843        C844   1.421       .  A
C844        N845   1.439       .  S
N845        H849   1.046   1_556  S
N845        H850   1.040       .  S
N848        H851   1.040   1_556  S
N848        H852   1.046       .  S
O853       Ni861   1.918       .  S
O853        C863   1.280       .  A
O854       Ni861   1.917       .  S
O854        C864   1.281       .  A
O855       Ni861   1.914       .  S
O855        C865   1.280       .  A
O856       Ni861   1.909       .  S
O856        C866   1.280       .  A
O857       Ni862   1.915       .  S
O857        C866   1.282       .  A
O858       Ni862   1.924       .  S
O858        C865   1.284       .  A
O859       Ni862   1.913       .  S
O859        C864   1.280       .  A
O860       Ni862   1.917       .  S
O860        C863   1.280       .  A
Ni861      Ni862   2.388       .  S
C863       C1082   1.470       .  S
C864       C1124   1.469       .  S
C865       C1099   1.492       .  S
C866       C1110   1.482       .  S
C867       C1026   1.589       .  S
C867       C1040   1.574       .  S
C867       C1054   1.579       .  S
C867       C1068   1.568       .  S
O868       Ni876   1.915       .  S
O868        C878   1.280       .  A
O869       Ni876   1.913       .  S
O869        C879   1.280       .  A
O870       Ni876   1.921       .  S
O870        C880   1.282       .  A
O871       Ni876   1.914       .  S
O871        C881   1.282       .  A
O872       Ni877   1.910       .  S
O872        C881   1.280       .  A
O873       Ni877   1.911       .  S
O873        C880   1.281       .  A
O874       Ni877   1.914       .  S
O874        C879   1.280       .  A
O875       Ni877   1.916       .  S
O875        C878   1.280       .  A
Ni876      Ni877   2.390       .  S
C878       C1057   1.466       .  S
C879       C1127   1.469       .  S
C880       C1071   1.484       .  S
C881       C1113   1.484       .  S
C882        C998   1.573       .  S
C882       C1012   1.564       .  S
C882       C1085   1.582       .  S
C882       C1096   1.576       .  S
O883       Ni891   1.918       .  S
O883        C893   1.280   1_655  A
O884       Ni891   1.913       .  S
O884        C894   1.280   1_655  A
O885       Ni891   1.920       .  S
O885        C895   1.281   1_655  A
O886       Ni891   1.913       .  S
O886        C896   1.282   1_655  A
O887       Ni892   1.912       .  S
O888       Ni892   1.921       .  S
O889       Ni892   1.915       .  S
O890       Ni892   1.920       .  S
C893        C970   1.471       .  S
C894        C956   1.480       .  S
C895        C987   1.490       .  S
C896        C942   1.479       .  S
O897       Ni905   1.916       .  S
O897        C907   1.282   1_655  A
O898       Ni905   1.922       .  S
O898        C908   1.281   1_655  A
O899       Ni905   1.910       .  S
O899        C909   1.280   1_655  A
O900       Ni905   1.918       .  S
O900        C910   1.282   1_655  A
O901       Ni906   1.919       .  S
O902       Ni906   1.913       .  S
O903       Ni906   1.919       .  S
O904       Ni906   1.912       .  S
C907        C959   1.480       .  S
C908        C914   1.474       .  S
C909        C945   1.479       .  S
C910        C931   1.487       .  S
C911        C917   1.588       .  S
C911        C928   1.578       .  S
C911       C1015   1.569       .  S
C912        C973   1.580       .  S
C912        C984   1.578       .  S
C912       C1043   1.568   1_455  S
C913        C914   1.393   1_655  A
C913        H920   1.085       .  S
C915        C916   1.398       .  A
C915        N922   1.440       .  S
C916        H921   1.079       .  S
C917        C918   1.445       .  A
N919        H923   1.046       .  S
N922        H925   1.041       .  S
N922        H926   1.046       .  S
C927        C932   1.405       .  A
C927        H934   1.076       .  S
C928        C929   1.433       .  A
C929        C930   1.406       .  A
C929        N936   1.440       .  S
C930        C931   1.400   1_655  A
C930        H935   1.084       .  S
C932        N933   1.439       .  S
N933        H937   1.046       .  S
N933        H938   1.046       .  S
N936        H939   1.042       .  S
N936        H940   1.046       .  S
C941        C942   1.405   1_655  A
C941        H948   1.084       .  S
C943        N950   1.438       .  S
C944        H949   1.084       .  S
C945        C946   1.412   1_455  A
C946        N947   1.438       .  S
N947        H952   1.046       .  S
N950        H953   1.045       .  S
C955        C960   1.404       .  A
C955        H962   1.084       .  S
C956        C957   1.411   1_455  A
C957        C958   1.405       .  A
C957        N964   1.438       .  S
C958        C959   1.406   1_655  A
C958        H963   1.084       .  S
C960        N961   1.438       .  S
N961        H965   1.046       .  S
N961        H966   1.046       .  S
N964        H967   1.046       .  S
N964        H968   1.046       .  S
C969        C970   1.392       .  A
C969        H976   1.085       .  S
C971        C972   1.400       .  A
C971        N978   1.439       .  S
C972        H977   1.078       .  S
C973        C974   1.441       .  A
N975        H979   1.040       .  S
N978        H981   1.042       .  S
N978        H982   1.046       .  S
C983        C984   1.420   1_655  A
C983        C988   1.408       .  A
C983        H990   1.078       .  S
C985        C986   1.403       .  A
C985        N992   1.432       .  S
C986        H991   1.084       .  S
C987        C988   1.411   1_455  A
C988        N989   1.439       .  S
N989        H993   1.046       .  S
N989        H994   1.045       .  S
N992        H995   1.046       .  S
N992        H996   1.046       .  S
C997        C998   1.410       .  A
C997       C1002   1.400       .  A
C997       H1004   1.084       .  S
C998        C999   1.431       .  A
C999       C1000   1.404       .  A
C999       N1006   1.438       .  S
C1000      C1001   1.412       .  A
C1000      H1005   1.083       .  S
C1001      C1002   1.427       .  A
C1002      N1003   1.431       .  S
N1003      H1007   1.046       .  S
N1003      H1008   1.046       .  S
N1006      H1009   1.043       .  S
N1006      H1010   1.045       .  S
C1011      C1012   1.412       .  A
C1011      C1016   1.395       .  A
C1011      H1018   1.076       .  S
C1012      C1013   1.431       .  A
C1013      C1014   1.395       .  A
C1013      N1020   1.436       .  S
C1014      C1015   1.412       .  A
C1014      H1019   1.076       .  S
C1015      C1016   1.431       .  A
C1016      N1017   1.436       .  S
N1017      H1021   1.043       .  S
N1017      H1022   1.041   1_655  S
N1020      H1023   1.041       .  S
N1020      H1024   1.042       .  S
C1025      C1026   1.418       .  A
C1025      C1030   1.403       .  A
C1025      H1032   1.077       .  S
C1026      C1027   1.433       .  A
C1027      C1028   1.401       .  A
C1027      N1034   1.439       .  S
C1028      C1029   1.416       .  A
C1028      H1033   1.078       .  S
C1029      C1030   1.432       .  A
C1030      N1031   1.441       .  S
N1031      H1035   1.046       .  S
N1031      H1036   1.033       .  S
N1034      H1037   1.032       .  S
N1034      H1038   1.045       .  S
C1039      C1040   1.412       .  A
C1039      C1044   1.402       .  A
C1039      H1046   1.078       .  S
C1040      C1041   1.426       .  A
C1041      C1042   1.403       .  A
C1041      N1048   1.432       .  S
C1042      C1043   1.411       .  A
C1042      H1047   1.077       .  S
C1043      C1044   1.423       .  A
C1044      N1045   1.434       .  S
N1045      H1049   1.046       .  S
N1045      H1050   1.046       .  S
N1048      H1051   1.046       .  S
N1048      H1052   1.045       .  S
C1053      C1054   1.426       .  A
C1053      C1058   1.401       .  A
C1053      H1060   1.084       .  S
C1054      C1055   1.443       .  A
C1055      C1056   1.396       .  A
C1055      N1062   1.432       .  S
C1056      C1057   1.391       .  A
C1056      H1061   1.086       .  S
C1057      C1058   1.405       .  A
C1058      N1059   1.439       .  S
N1059      H1063   1.046       .  S
N1059      H1064   1.044       .  S
N1062      H1065   1.042       .  S
N1062      H1066   1.041       .  S
C1067      C1068   1.419       .  A
C1067      C1072   1.407       .  A
C1067      H1074   1.083       .  S
C1068      C1069   1.431       .  A
C1069      N1076   1.430       .  S
C1070      C1071   1.398       .  A
C1070      H1075   1.084       .  S
C1072      N1073   1.438       .  S
N1073      H1077   1.046       .  S
N1076      H1079   1.046       .  S
C1081      C1082   1.393       .  A
C1081      C1086   1.406       .  A
C1081      H1088   1.084       .  S
C1082      C1083   1.402       .  A
C1083      C1084   1.404       .  A
C1083      N1090   1.440       .  S
C1084      C1085   1.420       .  A
C1084      H1089   1.075       .  S
C1085      C1086   1.432       .  A
C1086      N1087   1.431       .  S
N1087      H1091   1.046       .  S
N1087      H1092   1.046       .  S
N1090      H1093   1.046       .  S
N1090      H1094   1.045       .  S
C1095      C1096   1.418       .  A
C1095      C1100   1.408   1_565  A
C1095      H1102   1.076       .  S
C1096      C1097   1.427       .  A
C1097      N1104   1.432       .  S
C1098      C1099   1.401       .  A
C1098      H1103   1.084       .  S
C1100      N1101   1.439       .  S
N1101      H1105   1.046       .  S
N1104      H1107   1.044       .  S
C1109      C1110   1.403       .  A
C1109      C1114   1.404   1_554  A
C1109      H1116   1.084       .  S
C1110      C1111   1.416   1_554  A
C1111      C1112   1.402       .  A
C1111      N1118   1.439   1_556  S
C1112      C1113   1.403       .  A
C1112      H1117   1.083       .  S
C1113      C1114   1.417       .  A
C1114      N1115   1.438       .  S
N1115      H1119   1.046       .  S
N1115      H1120   1.046       .  S
N1118      H1121   1.046       .  S
N1118      H1122   1.046   1_554  S
C1123      C1128   1.400   1_554  A
C1123      H1130   1.084       .  S
C1124      C1125   1.420   1_554  A
C1125      C1126   1.399       .  A
C1125      N1132   1.439       .  S
C1126      H1131   1.085       .  S
C1127      C1128   1.421       .  A
C1128      N1129   1.439       .  S
N1129      H1133   1.046   1_556  S
N1129      H1134   1.040       .  S
N1132      H1135   1.040   1_556  S
N1132      H1136   1.046       .  S
