geometry optimzed in LAMMPS
_audit_creation_date              2020-11-30 
_audit_creation_method            'lammps2cif' 
_symmetry_space_group_name_H-M    'P1' 
_symmetry_Int_Tables_number       1 
_symmetry_cell_setting            triclinic 
loop_ 
_symmetry_equiv_pos_as_xyz 
  x,y,z 
_cell_length_a                    33.636359 
_cell_length_b                    33.66743891826448 
_cell_length_c                    36.83197711296137 
_cell_angle_alpha                 90.85720854254758 
_cell_angle_beta                  90.75564271470725 
_cell_angle_gamma                 89.79975895896766 
loop_ 
_atom_site_label 
_atom_site_type_symbol 
_atom_site_fract_x 
_atom_site_fract_y 
_atom_site_fract_z 
_atom_site_charge 
C1          C  0.60081850  0.97917325  0.98225790     0.87300
C2          C  0.56332869  0.97086469  0.00315243    -0.53000
C3          C  0.54996020  0.93309363  0.00658049     0.10200
C4          C  0.58580625  0.90111815  0.49323681     0.19500
C5          C  0.63161693  0.95606839  0.00449699    -0.53700
C6          C  0.62092632  0.91702060  0.01025513     0.10300
C7          C  0.60119156  0.95162013  0.44831482    -0.53200
C8          C  0.59424032  0.91172031  0.45301721     0.10900
H9          H  0.54965805  0.99566542  0.01644587     0.15400
H10         H  0.57831240  0.86940266  0.49723512     0.01100
H11         H  0.65686357  0.97026954  0.01792316     0.15700
H12         H  0.61227337  0.96311264  0.42296017     0.15500
C13         C  0.45316768  0.97453801  0.01550095     0.87300
C14         C  0.49203329  0.96183899  0.03490536    -0.53000
C15         C  0.50875117  0.92709646  0.02374821     0.10200
C16         C  0.47457088  0.89939319  0.00960894     0.21100
C17         C  0.45469843  0.95264239  0.47767825    -0.53700
C18         C  0.46562557  0.91385347  0.47430489     0.10300
C19         C  0.42503350  0.94765766  0.03565963    -0.53200
C20         C  0.43667609  0.90779871  0.03402426     0.10900
H21         H  0.50756156  0.98170126  0.05370938     0.15400
H22         H  0.48328118  0.86759252  0.00784885     0.01100
H23         H  0.44167418  0.96887763  0.45514760     0.15700
H24         H  0.40079335  0.95885904  0.05213676     0.15500
C25         C  0.45736787  0.01849861  0.51418245     0.87300
C26         C  0.49265624  0.02690269  0.49014692    -0.53000
C27         C  0.50670028  0.06448549  0.48716790     0.10200
C28         C  0.47761222  0.09374792  0.50593197     0.21100
C29         C  0.46298007  0.04421918  0.04871353    -0.53700
C30         C  0.47218938  0.08368283  0.04568415     0.10300
C31         C  0.42494585  0.04323441  0.49533177    -0.53200
C32         C  0.43577434  0.08246509  0.48990661     0.10900
H33         H  0.50526490  0.00243418  0.47554059     0.15400
H34         H  0.48592180  0.12538160  0.50275624     0.01100
H35         H  0.45541968  0.03092383  0.07441591     0.15700
H36         H  0.39810687  0.03007547  0.48379500     0.15500
C37         C  0.60172890  0.02652472  0.97980804     0.87300
C38         C  0.60262806  0.04589021  0.01873385    -0.53000
C39         C  0.59334816  0.08539191  0.02079295     0.10200
C40         C  0.58039242  0.10155377  0.98413429     0.21100
C41         C  0.56313568  0.03859737  0.95974137    -0.53700
C42         C  0.54628318  0.07342362  0.97038625     0.10300
C43         C  0.63179457  0.05031694  0.45844490    -0.53200
C44         C  0.61903843  0.08983924  0.45831275     0.10900
H45         H  0.61580216  0.03044324  0.04163998     0.15400
H46         H  0.57161449  0.13337165  0.98490231     0.01100
H47         H  0.55068189  0.01417195  0.44145783     0.15700
H48         H  0.65521198  0.03851162  0.44132968     0.15500
C49         C  0.01002272  0.42478153  0.49700452     0.87300
C50         C  0.99415886  0.46393275  0.48143174    -0.53000
C51         C  0.95736793  0.47594712  0.49197117     0.10200
C52         C  0.93377650  0.43911223  0.50409101     0.21100
C53         C  0.99329862  0.42201851  0.03662063    -0.53700
C54         C  0.95314196  0.42757660  0.03997044     0.10300
C55         C  0.98469592  0.39563089  0.47526158    -0.53200
C56         C  0.94455096  0.40416141  0.47726182     0.10900
H57         H  0.01314913  0.48393935  0.46749756     0.15400
H58         H  0.90135635  0.44485797  0.50620928     0.01100
H59         H  0.01157326  0.40982076  0.05830916     0.15700
H60         H  0.99721252  0.37363788  0.45675729     0.15500
C61         C  0.00830999  0.56905385  0.50686171     0.87300
C62         C  0.99356480  0.52936294  0.52143885    -0.53000
C63         C  0.95681277  0.51699211  0.51067241     0.10200
C64         C  0.93220656  0.55443544  0.99852382     0.21100
C65         C  0.99170069  0.57319453  0.46739948    -0.53700
C66         C  0.95142246  0.56710090  0.46349542     0.10300
C67         C  0.98314086  0.59878432  0.02689631    -0.53200
C68         C  0.94309341  0.59004846  0.02472703     0.10900
H69         H  0.00599297  0.51638869  0.54569883     0.15400
H70         H  0.89982425  0.54831579  0.99644060     0.01100
H71         H  0.00938613  0.58564702  0.44592751     0.15700
H72         H  0.99564033  0.62152496  0.04484556     0.15500
C73         C  0.05546857  0.56898854  0.51052846     0.87300
C74         C  0.07156688  0.53344369  0.48858713    -0.53000
C75         C  0.10815433  0.51934775  0.49811792     0.10200
C76         C  0.13142773  0.55237936  0.51855259     0.21100
C77         C  0.07032437  0.56594453  0.04956671    -0.53700
C78         C  0.11033577  0.55935602  0.05419063     0.10300
C79         C  0.08191996  0.60150387  0.49593668    -0.53200
C80         C  0.12205402  0.59215500  0.49833322     0.10900
H81         H  0.05803026  0.52320187  0.46344889     0.15400
H82         H  0.16368306  0.54569095  0.52114931     0.01100
H83         H  0.05147641  0.57470736  0.07203947     0.15700
H84         H  0.07020946  0.62657609  0.48091410     0.15500
C85         C  0.05701938  0.42529905  0.49479203     0.87300
C86         C  0.07150513  0.46161982  0.51674905    -0.53000
C87         C  0.10811937  0.47572305  0.50894476     0.10200
C88         C  0.13174824  0.44198688  0.99074784     0.21100
C89         C  0.07321303  0.42892118  0.45563826    -0.53700
C90         C  0.11340317  0.43578268  0.45378467     0.10300
C91         C  0.08202661  0.39372671  0.01257912    -0.53200
C92         C  0.12207171  0.40311500  0.01189264     0.10900
H93         H  0.05182845  0.47877991  0.53313165     0.15400
H94         H  0.16401811  0.44854163  0.98934902     0.01100
H95         H  0.05548994  0.42031476  0.43196862     0.15700
H96         H  0.07004006  0.36930236  0.02790892     0.15500
In97       In  0.40957364  0.85275213  0.39145424     1.36900
C98         C  0.36268154  0.91152634  0.36905610     0.78300
O99         O  0.43860739  0.90701700  0.41456205    -0.60100
O100        O  0.45167016  0.85311843  0.44068089    -0.51000
C101        C  0.36985434  0.79821331  0.42718792     0.71000
O102        O  0.35746018  0.83328466  0.42296389    -0.45900
C103        C  0.43187210  0.82134476  0.32799965     0.75700
O104        O  0.35317872  0.88890805  0.39451721    -0.57700
O105        O  0.45568875  0.84123428  0.34791021    -0.47800
O106        O  0.39424651  0.90156753  0.35324440    -0.54200
C107        C  0.45337263  0.89048389  0.44185983     0.85900
O108        O  0.40362849  0.79119082  0.41375605    -0.56100
O109        O  0.39887392  0.81465969  0.34238080    -0.59300
In110      In  0.18633802  0.64935536  0.42131683     1.36900
C111        C  0.14992594  0.61267855  0.47468892     0.78300
O112        O  0.24831382  0.65091862  0.44570244    -0.60100
O113        O  0.21660340  0.70503989  0.43881015    -0.51000
C114        C  0.21066800  0.62312757  0.35654611     0.71000
O115        O  0.19562563  0.60004433  0.37945622    -0.45900
C116        C  0.12079519  0.68175115  0.39384909     0.75700
O117        O  0.17697331  0.59538513  0.45679307    -0.57700
O118        O  0.14324808  0.70047786  0.41585104    -0.47800
O119        O  0.14490850  0.64863413  0.46745343    -0.54200
C120        C  0.24870684  0.68840131  0.44807213     0.85900
O121        O  0.21620967  0.65805804  0.36840006    -0.56100
O122        O  0.13302237  0.64763038  0.38491474    -0.59300
In123      In  0.38307642  0.84523025  0.11438247     1.36900
C124        C  0.41746416  0.87934651  0.05827832     0.78300
O125        O  0.37136868  0.78663923  0.08538626    -0.60100
O126        O  0.32313792  0.81879409  0.10858463    -0.51000
C127        C  0.41476510  0.81735748  0.17569588     0.71000
O128        O  0.43582371  0.83219497  0.15117746    -0.45900
C129        C  0.35885074  0.91442333  0.14130441     0.75700
O130        O  0.43581536  0.85331628  0.07652743    -0.57700
O131        O  0.33687379  0.89285256  0.12131296    -0.47800
O132        O  0.38138767  0.88332197  0.06591223    -0.54200
C133        C  0.33451996  0.78794247  0.09192009     0.85900
O134        O  0.37853800  0.81361947  0.16720497    -0.56100
O135        O  0.39183499  0.89906609  0.14963607    -0.59300
In136      In  0.16628102  0.62272752  0.13746437     1.36900
C137        C  0.10335368  0.66355396  0.15801597     0.78300
O138        O  0.11396004  0.58865187  0.11397402    -0.60100
O139        O  0.16895491  0.58049755  0.08828602    -0.51000
C140        C  0.21878074  0.66724744  0.10387730     0.71000
O141        O  0.18275430  0.67699378  0.10743429    -0.45900
C142        C  0.19968035  0.60850342  0.20240629     0.75700
O143        O  0.12653397  0.67576773  0.13393348    -0.57700
O144        O  0.18564110  0.58061450  0.18267018    -0.47800
O145        O  0.11442166  0.63202722  0.17328288    -0.54200
C146        C  0.13188046  0.57492771  0.08691286     0.85900
O147        O  0.22736473  0.63306741  0.11556841    -0.56100
O148        O  0.19894869  0.64183817  0.18753990    -0.59300
In149      In  0.17390283  0.37499160  0.37429780     1.36900
C150        C  0.11099379  0.33261858  0.35477968     0.78300
O151        O  0.12110223  0.41063889  0.39314557    -0.60100
O152        O  0.17379344  0.41452048  0.42467812    -0.51000
C153        C  0.22708296  0.33057679  0.40923650     0.71000
O154        O  0.19219153  0.31938072  0.40160275    -0.45900
C155        C  0.20541780  0.39492889  0.31098631     0.75700
O156        O  0.13292345  0.32361457  0.38146351    -0.57700
O157        O  0.18983106  0.42066314  0.33178796    -0.47800
O158        O  0.12390310  0.36070817  0.33607752    -0.54200
C159        C  0.13700407  0.42167908  0.42251371     0.85900
O160        O  0.23479376  0.36573132  0.39984933    -0.56100
O161        O  0.20796933  0.36083027  0.32433816    -0.59300
In162      In  0.37497745  0.14031654  0.40795762     1.36900
C163        C  0.41372673  0.10712334  0.46354047     0.78300
O164        O  0.37193573  0.20332137  0.42960290    -0.60100
O165        O  0.31854846  0.17034587  0.42353798    -0.51000
C166        C  0.39950518  0.16624560  0.34409241     0.71000
O167        O  0.42374444  0.15551923  0.36869794    -0.45900
C168        C  0.34715035  0.07284487  0.38017375     0.75700
O169        O  0.43004041  0.13251233  0.44368384    -0.57700
O170        O  0.32574120  0.09561138  0.39936649    -0.47800
O171        O  0.37741145  0.10168672  0.45681040    -0.54200
C172        C  0.33445176  0.20337972  0.43100635     0.85900
O173        O  0.36350676  0.16551228  0.35319749    -0.56100
O174        O  0.38166220  0.08555969  0.37441403    -0.59300
In175      In  0.18519348  0.34921293  0.09358888     1.36900
C176        C  0.14916328  0.38383422  0.03778517     0.78300
O177        O  0.24801088  0.34807872  0.07161588    -0.60100
O178        O  0.21614891  0.29428894  0.07744115    -0.51000
C179        C  0.20805866  0.37999698  0.15780623     0.71000
O180        O  0.18864173  0.40008001  0.13479382    -0.45900
C181        C  0.12201233  0.31102737  0.11748565     0.75700
O182        O  0.17573198  0.40182252  0.05614159    -0.57700
O183        O  0.14719052  0.29442435  0.09717703    -0.47800
O184        O  0.14398296  0.34838725  0.04629860    -0.54200
C185        C  0.24826909  0.31060344  0.06903950     0.85900
O186        O  0.21763186  0.34571402  0.14665615    -0.56100
O187        O  0.13077339  0.34587557  0.12756435    -0.59300
In188      In  0.41098280  0.14354093  0.12428300     1.36900
C189        C  0.37149895  0.07867572  0.14187964     0.78300
O190        O  0.44615735  0.14454270  0.07162716    -0.60100
O191        O  0.45546007  0.09724959  0.10762990    -0.51000
C192        C  0.36908899  0.19892496  0.09155642     0.71000
O193        O  0.35622842  0.16433427  0.09731353    -0.45900
C194        C  0.42212914  0.17285046  0.19081585     0.75700
O195        O  0.36452773  0.09652276  0.11251060    -0.57700
O196        O  0.45111206  0.15957939  0.17247848    -0.47800
O197        O  0.39657336  0.09551533  0.16229977    -0.54200
C198        C  0.45994518  0.11017599  0.07610493     0.85900
O199        O  0.40455189  0.20516619  0.10221600    -0.56100
O200        O  0.39004366  0.17560972  0.17313457    -0.59300
In201      In  0.89360075  0.63440990  0.38531777     1.36900
C202        C  0.95821550  0.67704478  0.37469980     0.78300
O203        O  0.94195577  0.59135109  0.40271002    -0.60100
O204        O  0.89341100  0.59939712  0.43776904    -0.51000
C205        C  0.83228606  0.67719365  0.40819212     0.71000
O206        O  0.86743802  0.69023561  0.40792640    -0.45900
C207        C  0.86362965  0.61741994  0.31944166     0.75700
O208        O  0.93534242  0.68386423  0.40101580    -0.57700
O209        O  0.87323367  0.58996981  0.34108522    -0.47800
O210        O  0.94598951  0.65062801  0.35268214    -0.54200
C211        C  0.92781784  0.58510131  0.43347578     0.85900
O212        O  0.82918969  0.64056674  0.40046292    -0.56100
O213        O  0.86951858  0.65184654  0.33189831    -0.59300
In214      In  0.65935997  0.84933188  0.37577929     1.36900
C215        C  0.61663091  0.88456018  0.42834428     0.78300
O216        O  0.66949864  0.78807147  0.39926893    -0.60100
O217        O  0.71872215  0.82662114  0.39309960    -0.51000
C218        C  0.63935846  0.82025785  0.31040673     0.71000
O219        O  0.61330697  0.83176795  0.33277832    -0.45900
C220        C  0.68379769  0.91716991  0.34844347     0.75700
O221        O  0.60147961  0.85779202  0.40806141    -0.57700
O222        O  0.70566175  0.89715157  0.36953167    -0.47800
O223        O  0.65328984  0.88941656  0.42396741    -0.54200
C224        C  0.70680034  0.79265004  0.40169618     0.85900
O225        O  0.67437359  0.82036500  0.32298215    -0.56100
O226        O  0.65100738  0.90122756  0.34048078    -0.59300
In227      In  0.87912605  0.64371160  0.10477200     1.36900
C228        C  0.91616237  0.60904707  0.05048060     0.78300
O229        O  0.81963258  0.64547036  0.07688077    -0.60100
O230        O  0.85458737  0.69819150  0.08098170    -0.51000
C231        C  0.84822669  0.62192831  0.16678860     0.71000
O232        O  0.86311301  0.59671383  0.14494347    -0.45900
C233        C  0.94278488  0.67110401  0.13907017     0.75700
O234        O  0.89033724  0.59046489  0.06821186    -0.57700
O235        O  0.91833939  0.69408664  0.12353591    -0.47800
O236        O  0.92068790  0.64494643  0.05930179    -0.54200
C237        C  0.82255277  0.68211318  0.07041952     0.85900
O238        O  0.84515330  0.65658762  0.15447044    -0.56100
O239        O  0.93386488  0.63476750  0.13773256    -0.59300
In240      In  0.67350398  0.86168005  0.09641836     1.36900
C241        C  0.70170288  0.92770417  0.12597119     0.78300
O242        O  0.67558442  0.90010640  0.04826522    -0.60100
O243        O  0.62123850  0.87022454  0.05869052    -0.51000
C244        C  0.71073163  0.80127489  0.06600147     0.71000
O245        O  0.72809342  0.83277107  0.07617651    -0.45900
C246        C  0.64808015  0.83258663  0.15849459     0.75700
O247        O  0.72446252  0.90191177  0.11195624    -0.57700
O248        O  0.62420524  0.84751597  0.13555050    -0.47800
O249        O  0.66533075  0.91864474  0.12586405    -0.54200
C250        C  0.63990394  0.89434985  0.03923525     0.85900
O251        O  0.67361717  0.80096717  0.07064114    -0.56100
O252        O  0.68378909  0.83109518  0.14849473    -0.59300
In253      In  0.88267771  0.35571226  0.39194191     1.36900
C254        C  0.91782834  0.38687529  0.44981659     0.78300
O255        O  0.82161422  0.35343712  0.41507976    -0.60100
O256        O  0.85499076  0.29986556  0.40863915    -0.51000
C257        C  0.85656093  0.38161855  0.32850238     0.71000
O258        O  0.87169952  0.40520517  0.35194343    -0.45900
C259        C  0.94793948  0.32661832  0.36363021     0.75700
O260        O  0.89195151  0.40647262  0.43228302    -0.57700
O261        O  0.92332909  0.30475021  0.37943980    -0.47800
O262        O  0.92294959  0.35173083  0.43910273    -0.54200
C263        C  0.82276056  0.31606383  0.41791725     0.85900
O264        O  0.85169399  0.34663411  0.33935563    -0.56100
O265        O  0.93786091  0.36253718  0.36064479    -0.59300
In266      In  0.65717831  0.15036792  0.37001357     1.36900
C267        C  0.67931990  0.08227932  0.34029601     0.78300
O268        O  0.66634520  0.11001688  0.41572264    -0.60100
O269        O  0.61156093  0.14195768  0.41416871    -0.51000
C270        C  0.70165188  0.20580629  0.40081750     0.71000
O271        O  0.71591301  0.17567528  0.38477380    -0.45900
C272        C  0.62460662  0.18099868  0.31032649     0.75700
O273        O  0.70428896  0.10862997  0.34965790    -0.57700
O274        O  0.60364528  0.16419776  0.33387688    -0.47800
O275        O  0.64334950  0.09252824  0.34301440    -0.54200
C276        C  0.63287489  0.11579982  0.42952258     0.85900
O277        O  0.66413500  0.20832737  0.40022137    -0.56100
O278        O  0.66080252  0.18462471  0.31909902    -0.59300
In279      In  0.89698755  0.35631231  0.11296839     1.36900
C280        C  0.95978572  0.31079405  0.12554524     0.78300
O281        O  0.94853777  0.39302638  0.09580580    -0.60100
O282        O  0.89471938  0.39896679  0.06600519    -0.51000
C283        C  0.83715312  0.31382035  0.08397235     0.71000
O284        O  0.87171640  0.30021184  0.08892466    -0.45900
C285        C  0.86990854  0.38042044  0.17687775     0.75700
O286        O  0.94028778  0.30955297  0.09601606    -0.57700
O287        O  0.88431601  0.40483199  0.15497170    -0.47800
O288        O  0.94486656  0.33298577  0.14972504    -0.54200
C289        C  0.93118035  0.40737718  0.06864946     0.85900
O290        O  0.83382750  0.35040327  0.09155421    -0.56100
O291        O  0.86895171  0.34510166  0.16536259    -0.59300
In292      In  0.65510911  0.14971245  0.10059117     1.36900
C293        C  0.60985656  0.11071884  0.05083472     0.78300
O294        O  0.67101188  0.21162765  0.08141197    -0.60100
O295        O  0.71540756  0.16708978  0.08127139    -0.51000
C296        C  0.62154380  0.18088360  0.16022693     0.71000
O297        O  0.60093990  0.16288554  0.13624637    -0.45900
C298        C  0.69706134  0.08933589  0.12588875     0.75700
O299        O  0.61809850  0.14716962  0.04783825    -0.57700
O300        O  0.70102373  0.10183273  0.09404239    -0.47800
O301        O  0.62103477  0.09619757  0.08045354    -0.54200
C302        C  0.70733269  0.20323565  0.07686961     0.85900
O303        O  0.65741647  0.18501290  0.15196806    -0.56100
O304        O  0.67438039  0.11008938  0.14547495    -0.59300
C305        C  0.80956417  0.24779881  0.06371991     0.24400
C306        C  0.80300902  0.28788320  0.07341690    -0.23700
C307        C  0.76355995  0.30107741  0.07787128     0.19300
C308        C  0.73186548  0.27401629  0.07639750     0.24300
C309        C  0.73890131  0.23320500  0.07021158    -0.23700
C310        C  0.77799639  0.22076355  0.06238127     0.19200
F311        F  0.78619828  0.18194263  0.05516372    -0.13700
F312        F  0.84689051  0.23419411  0.05715292    -0.16000
F313        F  0.69469400  0.28747634  0.08366181    -0.16000
F314        F  0.75575164  0.33974527  0.08606389    -0.13700
C315        C  0.58196639  0.16748265  0.21610859     0.24400
C316        C  0.60774991  0.19233826  0.19702493    -0.23700
C317        C  0.62933349  0.22145759  0.21657194     0.19300
C318        C  0.63096129  0.22094891  0.25446161     0.24300
C319        C  0.61017369  0.19196886  0.27357228    -0.23700
C320        C  0.58301783  0.16746626  0.25433716     0.19200
F321        F  0.56165461  0.13984532  0.27207619    -0.13700
F322        F  0.55997072  0.13960943  0.19805601    -0.16000
F323        F  0.65628805  0.24607730  0.27224452    -0.16000
F324        F  0.65270206  0.24747220  0.19888654    -0.13700
C325        C  0.87223700  0.42076176  0.27289134     0.24400
C326        C  0.84938478  0.39155419  0.28997141    -0.23700
C327        C  0.82637794  0.36542833  0.26831031     0.19300
C328        C  0.83032102  0.36473780  0.23076861     0.24300
C329        C  0.85698954  0.39041749  0.21398176    -0.23700
C330        C  0.87590361  0.42027877  0.23492806     0.19200
F331        F  0.90111475  0.44615438  0.21925333    -0.13700
F332        F  0.89436526  0.44689474  0.29291905    -0.16000
F333        F  0.81038054  0.33659896  0.21103848    -0.16000
F334        F  0.80267522  0.33793034  0.28363927    -0.13700
C335        C  0.71959035  0.27667091  0.41177829     0.24400
C336        C  0.72758374  0.23625169  0.41729886    -0.23700
C337        C  0.76377435  0.22494502  0.43361567     0.19300
C338        C  0.79394890  0.25281927  0.43876878     0.24300
C339        C  0.78816455  0.29204615  0.42726022    -0.23700
C340        C  0.74990322  0.30458273  0.41668360     0.19200
F341        F  0.74310441  0.34273764  0.40685266    -0.13700
F342        F  0.68404754  0.28852573  0.39776243    -0.16000
F343        F  0.82977435  0.24083328  0.45219691    -0.16000
F344        F  0.77067449  0.18649801  0.44248853    -0.13700
C345        C  0.74223929  0.98819408  0.11713792     0.24400
C346        C  0.71481074  0.96738163  0.13802540    -0.23700
C347        C  0.69181400  0.98825521  0.16350676     0.19300
C348        C  0.69095322  0.02959061  0.16353740     0.24300
C349        C  0.71222681  0.05033820  0.13726306    -0.23700
C350        C  0.74027538  0.02968665  0.11604863     0.19200
F351        F  0.76244212  0.04909416  0.09142058    -0.13700
F352        F  0.76679962  0.96847116  0.09406133    -0.16000
F353        F  0.66453931  0.04861824  0.18535641    -0.16000
F354        F  0.66647343  0.96865041  0.18530526    -0.13700
C355        C  0.79900926  0.74213817  0.03864729     0.24400
C356        C  0.79004898  0.70596868  0.05512676    -0.23700
C357        C  0.75063655  0.69791671  0.06471050     0.19300
C358        C  0.72229496  0.72834718  0.06399476     0.24300
C359        C  0.73330173  0.76658312  0.05314976    -0.23700
C360        C  0.77063290  0.77230309  0.03750394     0.19200
F361        F  0.78095736  0.80834057  0.02457022    -0.13700
F362        F  0.83639930  0.74968567  0.02715515    -0.16000
F363        F  0.68608859  0.72184099  0.07861451    -0.16000
F364        F  0.74091709  0.66259465  0.07948654    -0.13700
C365        C  0.66543880  0.01739244  0.30978073     0.24400
C366        C  0.69038918  0.04089457  0.33202653    -0.23700
C367        C  0.71999479  0.02248909  0.35329339     0.19300
C368        C  0.72094141  0.98110545  0.35610389     0.24300
C369        C  0.69294250  0.95779561  0.33680733    -0.23700
C370        C  0.66751240  0.97610534  0.31138146     0.19200
F371        F  0.64179926  0.95421644  0.29062241    -0.13700
F372        F  0.63663670  0.03433282  0.28891739    -0.16000
F373        F  0.74610518  0.96447798  0.38073311    -0.16000
F374        F  0.74437498  0.04455972  0.37519455    -0.13700
C375        C  0.65882755  0.78929260  0.25145172     0.24400
C376        C  0.63151003  0.81233287  0.27130046    -0.23700
C377        C  0.60328964  0.83528298  0.25223902     0.19300
C378        C  0.60630919  0.83969598  0.21448893     0.24300
C379        C  0.63678916  0.82010125  0.19533131    -0.23700
C380        C  0.66122299  0.79291953  0.21383141     0.19200
F381        F  0.68954333  0.77193865  0.19580876    -0.13700
F382        F  0.68539471  0.76551113  0.26881796    -0.16000
F383        F  0.58230452  0.86634376  0.19756232    -0.16000
F384        F  0.57572743  0.85698008  0.27051095    -0.13700
C385        C  0.85628861  0.57989982  0.22230789     0.24400
C386        C  0.84010354  0.61374547  0.20542246    -0.23700
C387        C  0.82370483  0.64404535  0.22735846     0.19300
C388        C  0.82782123  0.64286592  0.26503761     0.24300
C389        C  0.84870033  0.61158444  0.28171573    -0.23700
C390        C  0.86063970  0.57887854  0.26028141     0.19200
F391        F  0.88005569  0.54781272  0.27558678    -0.13700
F392        F  0.87147786  0.54956319  0.20208521    -0.16000
F393        F  0.81387305  0.67401100  0.28506804    -0.16000
F394        F  0.80675400  0.67673091  0.21235941    -0.13700
C395        C  0.80316040  0.74248715  0.42800570     0.24400
C396        C  0.79756522  0.70385708  0.41371981    -0.23700
C397        C  0.75976423  0.69336483  0.39968662     0.19300
C398        C  0.72887972  0.72147370  0.39847748     0.24300
C399        C  0.73529983  0.76061985  0.41101386    -0.23700
C400        C  0.77231183  0.77041469  0.42685798     0.19200
F401        F  0.77932531  0.80782495  0.43959941    -0.13700
F402        F  0.83927688  0.75413769  0.44108546    -0.16000
F403        F  0.69404068  0.71144603  0.38176514    -0.16000
F404        F  0.75370095  0.65715246  0.38388258    -0.13700
C405        C  0.02308233  0.30156021  0.16057258     0.24400
C406        C  0.99983417  0.29306235  0.12935072    -0.23700
C407        C  0.01861617  0.27751220  0.09828972     0.19300
C408        C  0.05999901  0.27855708  0.09590713     0.24300
C409        C  0.08288532  0.29395186  0.12499769    -0.23700
C410        C  0.06451762  0.30231534  0.15824564     0.19200
F411        F  0.08643913  0.31509719  0.18732400    -0.13700
F412        F  0.00586813  0.31360629  0.19203375    -0.16000
F413        F  0.07693942  0.27035184  0.06336868    -0.16000
F414        F  0.99701767  0.26635863  0.06845461    -0.13700
C415        C  0.27792056  0.24628873  0.05107333     0.24400
C416        C  0.28367295  0.28627236  0.06102556    -0.23700
C417        C  0.32171011  0.29881264  0.07248008     0.19300
C418        C  0.35138889  0.27053634  0.07990484     0.24300
C419        C  0.34321696  0.22968972  0.07529977    -0.23700
C420        C  0.30711815  0.21816747  0.05865392     0.19200
F421        F  0.29857760  0.17925006  0.05241283    -0.13700
F422        F  0.24234933  0.23376237  0.03738968    -0.16000
F423        F  0.38640744  0.28290756  0.09485072    -0.16000
F424        F  0.32882605  0.33772588  0.08020516    -0.13700
C425        C  0.38557667  0.19864129  0.28465675     0.24400
C426        C  0.41117778  0.17584674  0.30656243    -0.23700
C427        C  0.44437633  0.15736893  0.29058900     0.19300
C428        C  0.45020416  0.15930003  0.25297645     0.24300
C429        C  0.42294615  0.17979704  0.23070116    -0.23700
C430        C  0.39115470  0.20032089  0.24717670     0.19200
F431        F  0.36369579  0.21986922  0.22672004    -0.13700
F432        F  0.35380165  0.21775392  0.29926078    -0.16000
F433        F  0.48009463  0.13767025  0.23803336    -0.16000
F434        F  0.46905929  0.13425133  0.31074379    -0.13700
C435        C  0.01131637  0.29432857  0.37981312     0.24400
C436        C  0.98774169  0.31334504  0.35359863    -0.23700
C437        C  0.00548007  0.32886127  0.32268295     0.19300
C438        C  0.04680692  0.33020837  0.32037198     0.24300
C439        C  0.07067917  0.31637901  0.34927581    -0.23700
C440        C  0.05266518  0.29561348  0.37759924     0.19200
F441        F  0.07465905  0.28113776  0.40564433    -0.13700
F442        F  0.99466745  0.27988473  0.41030262    -0.16000
F443        F  0.06317400  0.34904985  0.29188166    -0.16000
F444        F  0.98284516  0.34629681  0.29654906    -0.13700
C445        C  0.19177552  0.42653323  0.25081596     0.24400
C446        C  0.21561183  0.40163801  0.27251877    -0.23700
C447        C  0.24286954  0.37596761  0.25545353     0.19300
C448        C  0.24278001  0.37149039  0.21766688     0.24300
C449        C  0.21591819  0.39318072  0.19595948    -0.23700
C450        C  0.19212884  0.42254996  0.21276035     0.19200
F451        F  0.16618065  0.44450523  0.19280355    -0.13700
F452        F  0.16478490  0.45133293  0.26637381    -0.16000
F453        F  0.26692514  0.34354450  0.20258910    -0.16000
F454        F  0.26745107  0.35265686  0.27555655    -0.13700
C455        C  0.32430275  0.27673223  0.42519954     0.24400
C456        C  0.31032456  0.23967418  0.43673873    -0.23700
C457        C  0.27031185  0.23617985  0.44660489     0.19300
C458        C  0.24380551  0.26760511  0.44113769     0.24300
C459        C  0.25672183  0.30298951  0.42521130    -0.23700
C460        C  0.29763221  0.30818364  0.41938957     0.19200
F461        F  0.31128845  0.34207277  0.40449030    -0.13700
F462        F  0.36281578  0.28120145  0.41549672    -0.16000
F463        F  0.20486748  0.26222715  0.44895733    -0.16000
F464        F  0.25613520  0.20121176  0.45891664    -0.13700
C465        C  0.03857562  0.66367425  0.18965881     0.24400
C466        C  0.06359086  0.68072217  0.16386123    -0.23700
C467        C  0.04690268  0.70573106  0.13738903     0.19300
C468        C  0.00571342  0.70747688  0.13261677     0.24300
C469        C  0.98117376  0.68413272  0.15410173    -0.23700
C470        C  0.99743802  0.66483047  0.18440557     0.19200
F471        F  0.97383848  0.64366147  0.20660413    -0.13700
F472        F  0.05387063  0.64182759  0.21727235    -0.16000
F473        F  0.99045966  0.72680070  0.10346406    -0.16000
F474        F  0.07018626  0.72389601  0.11283448    -0.13700
C475        C  0.37084211  0.97578916  0.17821447     0.24400
C476        C  0.34952332  0.95609658  0.15033178    -0.23700
C477        C  0.32606071  0.97846927  0.12618381     0.19300
C478        C  0.32930320  0.01981943  0.12605138     0.24300
C479        C  0.35586146  0.03902227  0.15016622    -0.23700
C480        C  0.37361601  0.01709711  0.17842444     0.19200
F481        F  0.39693736  0.03504502  0.20417304    -0.13700
F482        F  0.39168557  0.95497888  0.20346210    -0.16000
F483        F  0.30907915  0.04059511  0.10042432    -0.16000
F484        F  0.30358971  0.96028755  0.10000359    -0.13700
C485        C  0.31837287  0.71566020  0.08929267     0.24400
C486        C  0.30665034  0.75519822  0.08379080    -0.23700
C487        C  0.26627926  0.76377835  0.07745782     0.19300
C488        C  0.23758779  0.73424949  0.08101770     0.24300
C489        C  0.24890573  0.69533212  0.09040206    -0.23700
C490        C  0.28971979  0.68581564  0.09219300     0.19200
F491        F  0.30194779  0.64834651  0.09977263    -0.13700
F492        F  0.35714882  0.70659410  0.09579912    -0.16000
F493        F  0.19864609  0.74466697  0.07805955    -0.16000
F494        F  0.25436242  0.80145927  0.07019330    -0.13700
C495        C  0.06478101  0.68179495  0.34927824     0.24400
C496        C  0.08126116  0.69589396  0.38221930    -0.23700
C497        C  0.05660419  0.71551069  0.40728119     0.19300
C498        C  0.01529046  0.71477881  0.40227326     0.24300
C499        C  0.99853750  0.69403220  0.37234991    -0.23700
C500        C  0.02361465  0.68117101  0.34419856     0.19200
F501        F  0.00841619  0.66408681  0.31341462    -0.13700
F502        F  0.08833215  0.66532528  0.32339824    -0.16000
F503        F  0.99186948  0.73047472  0.42862215    -0.16000
F504        F  0.07194640  0.73080559  0.43875296    -0.13700
C505        C  0.19761414  0.57961648  0.30123072     0.24400
C506        C  0.21724341  0.61229653  0.31773758    -0.23700
C507        C  0.23786327  0.63864837  0.29545569     0.19300
C508        C  0.23532040  0.63498838  0.25762292     0.24300
C509        C  0.21238352  0.60466085  0.24103607    -0.23700
C510        C  0.19567478  0.57557427  0.26318276     0.19200
F511        F  0.17435441  0.54523999  0.24813900    -0.13700
F512        F  0.17720667  0.55356315  0.32162492    -0.16000
F513        F  0.25347172  0.66269781  0.23720880    -0.16000
F514        F  0.25842010  0.66972926  0.31018494    -0.13700
C515        C  0.35700975  0.97428598  0.33441667     0.24400
C516        C  0.34267574  0.94990184  0.36203402    -0.23700
C517        C  0.31781637  0.96683181  0.38862669     0.19300
C518        C  0.31451160  0.00817994  0.39195706     0.24300
C519        C  0.33533180  0.03263069  0.36823628    -0.23700
C520        C  0.35345728  0.01549689  0.33762049     0.19200
F521        F  0.37168916  0.03870329  0.31303809    -0.13700
F522        F  0.37873059  0.95874175  0.30678075    -0.16000
F523        F  0.29604268  0.02399843  0.42139858    -0.16000
F524        F  0.30125430  0.94393380  0.41438070    -0.13700
C525        C  0.46165232  0.83624983  0.26776225     0.24400
C526        C  0.43889388  0.81097441  0.28932020    -0.23700
C527        C  0.41543651  0.78154889  0.27202362     0.19300
C528        C  0.41067790  0.78089060  0.23419244     0.24300
C529        C  0.42953339  0.80942873  0.21297016    -0.23700
C530        C  0.45683672  0.83562199  0.22985662     0.19200
F531        F  0.47536215  0.86372724  0.21021445    -0.13700
F532        F  0.48507649  0.86461714  0.28343428    -0.16000
F533        F  0.38564067  0.75392998  0.21849331    -0.16000
F534        F  0.39481874  0.75517703  0.29194258    -0.13700
C535        C  0.31068645  0.77883220  0.46313072     0.24400
C536        C  0.34492734  0.76750863  0.44392392    -0.23700
C537        C  0.35139969  0.72691887  0.43623931     0.19300
C538        C  0.32156644  0.69915347  0.44293026     0.24300
C539        C  0.28469006  0.71190689  0.45639399    -0.23700
C540        C  0.28071326  0.75120241  0.46921397     0.19200
F541        F  0.24647670  0.76356084  0.48500537    -0.13700
F542        F  0.30480905  0.81724382  0.47356562    -0.16000
F543        F  0.32702793  0.66080216  0.43216190    -0.16000
F544        F  0.38465384  0.71460346  0.41881123    -0.13700
C545        C  0.60418759  0.97655518  0.48339445     0.87300
C546        C  0.56620475  0.96802222  0.50347176    -0.53000
C547        C  0.55331050  0.93012916  0.50730880     0.10200
C548        C  0.58148064  0.90388696  0.99119148     0.19500
C549        C  0.63458462  0.95438661  0.50709869    -0.53700
C550        C  0.62431630  0.91526579  0.51335496     0.10300
C551        C  0.59608114  0.95510539  0.94669199    -0.53200
C552        C  0.58845604  0.91526448  0.95100192     0.10900
H553        H  0.55230833  0.99281447  0.51658742     0.15400
H554        H  0.57366837  0.87219515  0.99487068     0.01100
H555        H  0.65921278  0.96922409  0.52090898     0.15700
H556        H  0.60585837  0.96717034  0.92112146     0.15500
C557        C  0.45636792  0.97101304  0.51670623     0.87300
C558        C  0.49531947  0.95841428  0.53605735    -0.53000
C559        C  0.51217031  0.92382188  0.52465115     0.10200
C560        C  0.47803788  0.89603122  0.51042520     0.21100
C561        C  0.45158292  0.95611724  0.97660533    -0.53700
C562        C  0.46224114  0.91726116  0.97341305     0.10300
C563        C  0.42829482  0.94407365  0.53664548    -0.53200
C564        C  0.43992974  0.90427413  0.53457072     0.10900
H565        H  0.51100487  0.97847402  0.55457410     0.15400
H566        H  0.48680012  0.86424919  0.50861684     0.01100
H567        H  0.43901454  0.97244728  0.95392349     0.15700
H568        H  0.40364438  0.95504475  0.55274839     0.15500
C569        C  0.45457283  0.02208165  0.01290710     0.87300
C570        C  0.49034316  0.03040506  0.98942824    -0.53000
C571        C  0.50474343  0.06797335  0.98699080     0.10200
C572        C  0.47552789  0.09731473  0.00564599     0.21100
C573        C  0.46625737  0.04104952  0.54972808    -0.53700
C574        C  0.47526477  0.08052192  0.54608436     0.10300
C575        C  0.42270298  0.04731257  0.99369854    -0.53200
C576        C  0.43391570  0.08656810  0.98881529     0.10900
H577        H  0.50293185  0.00587683  0.97482429     0.15400
H578        H  0.48417833  0.12891118  0.00289559     0.01100
H579        H  0.45912869  0.02810809  0.57569658     0.15700
H580        H  0.39596297  0.03450205  0.98163835     0.15500
C581        C  0.60427261  0.02395840  0.47973455     0.87300
C582        C  0.60536045  0.04398375  0.51817828    -0.53000
C583        C  0.59568381  0.08335376  0.51978256     0.10200
C584        C  0.58184089  0.09886519  0.48306890     0.21100
C585        C  0.56519691  0.03507277  0.46000696    -0.53700
C586        C  0.54799219  0.06997773  0.47016411     0.10300
C587        C  0.63014328  0.05268873  0.95953491    -0.53200
C588        C  0.61808011  0.09233913  0.96006843     0.10900
H589        H  0.61858456  0.02894027  0.54128431     0.15400
H590        H  0.57257211  0.13054818  0.48360984     0.01100
H591        H  0.54836776  0.01828167  0.94082358     0.15700
H592        H  0.65380725  0.04090540  0.94267659     0.15500
C593        C  0.00890049  0.42534982  0.99747508     0.87300
C594        C  0.99348129  0.46468390  0.98190423    -0.53000
C595        C  0.95675340  0.47691132  0.99266091     0.10200
C596        C  0.93281865  0.44040902  0.00471947     0.21100
C597        C  0.99419909  0.42130024  0.53630154    -0.53700
C598        C  0.95388496  0.42643803  0.53951911     0.10300
C599        C  0.98313086  0.39648199  0.97559140    -0.53200
C600        C  0.94303595  0.40541442  0.97770629     0.10900
H601        H  0.01236036  0.48429604  0.96828206     0.15400
H602        H  0.90047938  0.44652574  0.00704354     0.01100
H603        H  0.01244808  0.40917765  0.55803763     0.15700
H604        H  0.99527221  0.37432347  0.95704987     0.15500
C605        C  0.00850158  0.56941691  0.00577866     0.87300
C606        C  0.99349429  0.53047550  0.02188056    -0.53000
C607        C  0.95671306  0.51808590  0.01108218     0.10200
C608        C  0.93215217  0.55360860  0.49852523     0.21100
C609        C  0.99162702  0.57204744  0.96622617    -0.53700
C610        C  0.95112743  0.56652068  0.96299752     0.10300
C611        C  0.98249817  0.59723360  0.52886694    -0.53200
C612        C  0.94247065  0.58827855  0.52607717     0.10900
H613        H  0.01299229  0.51074913  0.03578756     0.15400
H614        H  0.89981735  0.54745007  0.49594521     0.01100
H615        H  0.00908872  0.58404911  0.94439138     0.15700
H616        H  0.99468469  0.61939870  0.54760098     0.15500
C617        C  0.05565474  0.56937017  0.00948558     0.87300
C618        C  0.07149774  0.53320413  0.98835017    -0.53000
C619        C  0.10801346  0.51921547  0.99813951     0.10200
C620        C  0.13148955  0.55260960  0.01817036     0.21100
C621        C  0.07024764  0.56456305  0.55044146    -0.53700
C622        C  0.11020537  0.55766204  0.55471150     0.10300
C623        C  0.08229224  0.60132684  0.99424189    -0.53200
C624        C  0.12237072  0.59190215  0.99724514     0.10900
H625        H  0.05857968  0.52310218  0.96306071     0.15400
H626        H  0.16370507  0.54582450  0.02097241     0.01100
H627        H  0.05148989  0.57252764  0.57321225     0.15700
H628        H  0.07084476  0.62626884  0.97888056     0.15500
C629        C  0.05585778  0.42555480  0.99558237     0.87300
C630        C  0.07085685  0.46208351  0.01702967    -0.53000
C631        C  0.10771015  0.47571290  0.00924273     0.10200
C632        C  0.13290474  0.44229309  0.49101950     0.21100
C633        C  0.07140104  0.42857086  0.95641099    -0.53700
C634        C  0.11141886  0.43503558  0.95380705     0.10300
C635        C  0.08313620  0.39340884  0.51162276    -0.53200
C636        C  0.12312409  0.40294332  0.51135854     0.10900
H637        H  0.05836318  0.47097096  0.04273925     0.15400
H638        H  0.16514138  0.44919837  0.49031435     0.01100
H639        H  0.05313464  0.41986424  0.93311223     0.15700
H640        H  0.07112224  0.36840768  0.52615960     0.15500
In641      In  0.40868666  0.85769472  0.88842798     1.36900
C642        C  0.36308453  0.91771631  0.86747894     0.78300
O643        O  0.43800592  0.91110481  0.91266379    -0.60100
O644        O  0.44782096  0.85692426  0.93948732    -0.51000
C645        C  0.36795563  0.80280415  0.92186690     0.71000
O646        O  0.35434402  0.83686118  0.91491209    -0.45900
C647        C  0.43077237  0.82608805  0.82528051     0.75700
O648        O  0.35258259  0.89391982  0.89168851    -0.57700
O649        O  0.45562755  0.84373791  0.84588627    -0.47800
O650        O  0.39535043  0.90866815  0.85231775    -0.54200
C651        C  0.45073472  0.89419713  0.94060958     0.85900
O652        O  0.40343609  0.79684818  0.91213210    -0.56100
O653        O  0.39676931  0.82251628  0.83855181    -0.59300
In654      In  0.18647435  0.65027673  0.92170592     1.36900
C655        C  0.15088946  0.61272961  0.97470820     0.78300
O656        O  0.25030401  0.65295884  0.94188953    -0.60100
O657        O  0.21581301  0.70573051  0.93924689    -0.51000
C658        C  0.20840401  0.62431731  0.85609300     0.71000
O659        O  0.19883593  0.60057260  0.88084015    -0.45900
C660        C  0.11981155  0.68312412  0.89808631     0.75700
O661        O  0.17697776  0.59541927  0.95572394    -0.57700
O662        O  0.14340746  0.70174485  0.91908292    -0.47800
O663        O  0.14714411  0.64919344  0.96929455    -0.54200
C664        C  0.24924278  0.69030121  0.94552939     0.85900
O665        O  0.20865034  0.66038268  0.86594137    -0.56100
O666        O  0.13139463  0.64897091  0.88842480    -0.59300
In667      In  0.38202116  0.84180594  0.61126243     1.36900
C668        C  0.41922267  0.87529547  0.55692844     0.78300
O669        O  0.37149521  0.78072683  0.58622983    -0.60100
O670        O  0.32242722  0.81552334  0.60387873    -0.51000
C671        C  0.41404768  0.81762652  0.67358138     0.71000
O672        O  0.43510362  0.83166632  0.64867246    -0.45900
C673        C  0.35522932  0.91108856  0.63581353     0.75700
O674        O  0.43642298  0.84891058  0.57556437    -0.57700
O675        O  0.33545657  0.89019874  0.61341318    -0.47800
O676        O  0.38275331  0.87930519  0.56272659    -0.54200
C677        C  0.33428482  0.78304735  0.59051402     0.85900
O678        O  0.37782231  0.81344910  0.66515282    -0.56100
O679        O  0.38649180  0.89485196  0.64749202    -0.59300
In680      In  0.16599932  0.61877223  0.63750406     1.36900
C681        C  0.10290192  0.66280460  0.65205597     0.78300
O682        O  0.11432176  0.58261884  0.61600259    -0.60100
O683        O  0.16886142  0.57739768  0.58854646    -0.51000
C684        C  0.21903052  0.66247527  0.60418454     0.71000
O685        O  0.18517360  0.67484471  0.61339074    -0.45900
C686        C  0.19889809  0.60456340  0.70267207     0.75700
O687        O  0.12414732  0.66832017  0.62464414    -0.57700
O688        O  0.18290541  0.57691393  0.68396521    -0.47800
O689        O  0.11575838  0.63638945  0.67318250    -0.54200
C690        C  0.13193654  0.57100608  0.58791953     0.85900
O691        O  0.22560715  0.62623739  0.61086445    -0.56100
O692        O  0.20003120  0.63720452  0.68670213    -0.59300
In693      In  0.16877650  0.37252069  0.87299783     1.36900
C694        C  0.10613689  0.32963383  0.85337749     0.78300
O695        O  0.11608673  0.40625711  0.89428931    -0.60100
O696        O  0.17056880  0.41406607  0.92230554    -0.51000
C697        C  0.22463641  0.33247198  0.90845977     0.71000
O698        O  0.19015721  0.31913879  0.90207794    -0.45900
C699        C  0.19886466  0.39092718  0.80868874     0.75700
O700        O  0.12850057  0.31979465  0.87959225    -0.57700
O701        O  0.18248535  0.41696055  0.82868829    -0.47800
O702        O  0.11855487  0.35860339  0.83556180    -0.54200
C703        C  0.13352239  0.41968261  0.92209112     0.85900
O704        O  0.23054620  0.36716395  0.89699621    -0.56100
O705        O  0.20224594  0.35740915  0.82309717    -0.59300
In706      In  0.37492007  0.14543935  0.90622960     1.36900
C707        C  0.41241072  0.11185991  0.96247974     0.78300
O708        O  0.37274041  0.20943442  0.92575691    -0.60100
O709        O  0.31907884  0.17655312  0.92205561    -0.51000
C710        C  0.40303434  0.16897533  0.84281724     0.71000
O711        O  0.42549352  0.15538157  0.86755463    -0.45900
C712        C  0.34532742  0.07880521  0.87801892     0.75700
O713        O  0.42921192  0.13725695  0.94298355    -0.57700
O714        O  0.32413523  0.10217098  0.89681023    -0.47800
O715        O  0.37612606  0.10692653  0.95530438    -0.54200
C716        C  0.33535691  0.20965845  0.92845613     0.85900
O717        O  0.36705048  0.17250421  0.85163459    -0.56100
O718        O  0.38014637  0.09072006  0.87266858    -0.59300
In719      In  0.18682882  0.34568655  0.59056174     1.36900
C720        C  0.15053870  0.38223821  0.53597098     0.78300
O721        O  0.25055614  0.34449770  0.57191712    -0.60100
O722        O  0.21805052  0.29066904  0.57414783    -0.51000
C723        C  0.20734330  0.37631750  0.65538562     0.71000
O724        O  0.18991187  0.39695011  0.63149067    -0.45900
C725        C  0.12399006  0.30678921  0.61341690     0.75700
O726        O  0.17821866  0.39901479  0.55384712    -0.57700
O727        O  0.14791364  0.29150284  0.59109042    -0.47800
O728        O  0.14467123  0.34674430  0.54393357    -0.54200
C729        C  0.25088377  0.30710164  0.56871047     0.85900
O730        O  0.21602947  0.34154801  0.64488668    -0.56100
O731        O  0.13398889  0.34040894  0.62583199    -0.59300
In732      In  0.41497930  0.13990052  0.62445153     1.36900
C733        C  0.37516391  0.07463809  0.63910583     0.78300
O734        O  0.44833767  0.14108418  0.57118082    -0.60100
O735        O  0.46104161  0.09534709  0.60819833    -0.51000
C736        C  0.37279501  0.19550035  0.59290406     0.71000
O737        O  0.36237796  0.15947228  0.59296307    -0.45900
C738        C  0.42652573  0.16919720  0.69085476     0.75700
O739        O  0.36369086  0.09802532  0.61462297    -0.57700
O740        O  0.45571122  0.16170901  0.67037911    -0.47800
O741        O  0.40567413  0.08586531  0.65641463    -0.54200
C742        C  0.46366228  0.10746480  0.57621628     0.85900
O743        O  0.40603784  0.20279226  0.60812933    -0.56100
O744        O  0.39290334  0.16449756  0.67613395    -0.59300
In745      In  0.89157705  0.63823814  0.88986017     1.36900
C746        C  0.95648128  0.68038757  0.88081702     0.78300
O747        O  0.94118768  0.59554264  0.90432643    -0.60100
O748        O  0.89228491  0.59913821  0.93958148    -0.51000
C749        C  0.83088199  0.68148153  0.91469630     0.71000
O750        O  0.86608512  0.69421047  0.91358614    -0.45900
C751        C  0.86339359  0.62059565  0.82361596     0.75700
O752        O  0.93492751  0.68496943  0.90841088    -0.57700
O753        O  0.87241769  0.59359307  0.84584336    -0.47800
O754        O  0.94241848  0.65713295  0.85682706    -0.54200
C755        C  0.92709406  0.58620900  0.93435258     0.85900
O756        O  0.82746950  0.64497687  0.90661733    -0.56100
O757        O  0.86813826  0.65530499  0.83590363    -0.59300
In758      In  0.65781227  0.85253787  0.87826616     1.36900
C759        C  0.60620062  0.88737488  0.92392074     0.78300
O760        O  0.66858956  0.79050433  0.89972063    -0.60100
O761        O  0.71603574  0.83196365  0.90094501    -0.51000
C762        C  0.63627354  0.82088619  0.81426360     0.71000
O763        O  0.61060938  0.83395098  0.83633621    -0.45900
C764        C  0.69454775  0.91905440  0.85896116     0.75700
O765        O  0.60884362  0.89608494  0.89097632    -0.57700
O766        O  0.69718065  0.90565304  0.89073222    -0.47800
O767        O  0.62538295  0.85653938  0.93246767    -0.54200
C768        C  0.70507778  0.79673259  0.90644700     0.85900
O769        O  0.67123848  0.82052260  0.82678120    -0.56100
O770        O  0.67675233  0.89636746  0.83687652    -0.59300
In771      In  0.87743064  0.64172770  0.60605348     1.36900
C772        C  0.91506519  0.60691991  0.55180770     0.78300
O773        O  0.81774482  0.64311801  0.57873937    -0.60100
O774        O  0.85184615  0.69637647  0.58311557    -0.51000
C775        C  0.84959129  0.62010931  0.67002505     0.71000
O776        O  0.86473685  0.59499673  0.64822640    -0.45900
C777        C  0.94166311  0.67194070  0.63615508     0.75700
O778        O  0.88788573  0.58875230  0.56825079    -0.57700
O779        O  0.91704464  0.69346599  0.61916916    -0.47800
O780        O  0.92046818  0.64224722  0.56185723    -0.54200
C781        C  0.82013726  0.67983353  0.57243362     0.85900
O782        O  0.84523457  0.65437699  0.65708904    -0.56100
O783        O  0.93211463  0.63595278  0.63906381    -0.59300
In784      In  0.67615718  0.86043479  0.60086237     1.36900
C785        C  0.70525751  0.92646465  0.62956747     0.78300
O786        O  0.67836441  0.89927757  0.55266969    -0.60100
O787        O  0.62422717  0.86902521  0.56246135    -0.51000
C788        C  0.71069590  0.79908539  0.56994698     0.71000
O789        O  0.72976847  0.82932895  0.58091863    -0.45900
C790        C  0.64934502  0.83135859  0.66277986     0.75700
O791        O  0.72730427  0.90180460  0.61305596    -0.57700
O792        O  0.62681967  0.84905511  0.64039220    -0.47800
O793        O  0.66964249  0.91576329  0.63302580    -0.54200
C794        C  0.64293776  0.89317061  0.54306648     0.85900
O795        O  0.67367194  0.80028355  0.57487954    -0.56100
O796        O  0.68484100  0.82723941  0.65246438    -0.59300
In797      In  0.87858257  0.35614814  0.89389777     1.36900
C798        C  0.91562094  0.38814816  0.95067159     0.78300
O799        O  0.81665545  0.35893951  0.91564659    -0.60100
O800        O  0.84750056  0.30349728  0.91437341    -0.51000
C801        C  0.85366343  0.37972990  0.82913961     0.71000
O802        O  0.86671017  0.40430996  0.85281830    -0.45900
C803        C  0.94352785  0.32591004  0.86534664     0.75700
O804        O  0.89136541  0.40832621  0.93180418    -0.57700
O805        O  0.91873624  0.30418543  0.88123668    -0.47800
O806        O  0.91829258  0.35209574  0.94183400    -0.54200
C807        C  0.81580513  0.32205945  0.92143423     0.85900
O808        O  0.85008838  0.34462177  0.84022845    -0.56100
O809        O  0.93396399  0.36203717  0.86312205    -0.59300
In810      In  0.66020082  0.15156361  0.87356285     1.36900
C811        C  0.68921219  0.08393752  0.84833818     0.78300
O812        O  0.66838049  0.11478831  0.92179978    -0.60100
O813        O  0.61161886  0.14216774  0.91428590    -0.51000
C814        C  0.69795805  0.21095396  0.90493001     0.71000
O815        O  0.71553614  0.18132620  0.89107144    -0.45900
C816        C  0.62881992  0.17795838  0.81181558     0.75700
O817        O  0.71158874  0.11231188  0.85820730    -0.57700
O818        O  0.60838513  0.15936490  0.83456310    -0.47800
O819        O  0.65252017  0.09177954  0.84802175    -0.54200
C820        C  0.63323456  0.11850737  0.93234320     0.85900
O821        O  0.66048627  0.21093692  0.90182862    -0.56100
O822        O  0.66404477  0.18518290  0.82206706    -0.59300
In823      In  0.89695894  0.35378051  0.61174875     1.36900
C824        C  0.96120937  0.30938548  0.62108497     0.78300
O825        O  0.94763475  0.39375845  0.59667747    -0.60100
O826        O  0.89576272  0.39492438  0.56361894    -0.51000
C827        C  0.83799142  0.30987479  0.58262299     0.71000
O828        O  0.87134701  0.29603765  0.59202680    -0.45900
C829        C  0.86952374  0.37704762  0.67663942     0.75700
O830        O  0.94236390  0.31063135  0.59126551    -0.57700
O831        O  0.88333259  0.40171337  0.65463345    -0.47800
O832        O  0.94498150  0.32827217  0.64677511    -0.54200
C833        C  0.93143359  0.40583593  0.56795537     0.85900
O834        O  0.83533876  0.34722788  0.58612642    -0.56100
O835        O  0.86891155  0.34190122  0.66471929    -0.59300
In836      In  0.65534692  0.14792505  0.60083290     1.36900
C837        C  0.61168656  0.10876018  0.54994796     0.78300
O838        O  0.67185526  0.20823278  0.57875361    -0.60100
O839        O  0.71637196  0.16386680  0.58314970    -0.51000
C840        C  0.62270814  0.17962893  0.66044506     0.71000
O841        O  0.60281939  0.15851697  0.63821461    -0.45900
C842        C  0.69684434  0.08841881  0.62833737     0.75700
O843        O  0.61778484  0.14572051  0.54803334    -0.57700
O844        O  0.70455908  0.10345200  0.59809836    -0.47800
O845        O  0.62448942  0.09377600  0.57876968    -0.54200
C846        C  0.70839158  0.19951427  0.57610298     0.85900
O847        O  0.65705024  0.18783703  0.64984629    -0.56100
O848        O  0.66998834  0.10621475  0.64575668    -0.59300
C849        C  0.81121908  0.24286874  0.56459553     0.24400
C850        C  0.80428985  0.28353846  0.57158663    -0.23700
C851        C  0.76466688  0.29705739  0.57328415     0.19300
C852        C  0.73298500  0.26995675  0.57213409     0.24300
C853        C  0.74024847  0.22884887  0.56874493    -0.23700
C854        C  0.77967819  0.21584011  0.56343437     0.19200
F855        F  0.78819200  0.17657673  0.55927759    -0.13700
F856        F  0.84883912  0.22877538  0.56073032    -0.16000
F857        F  0.69552227  0.28379138  0.57739034    -0.16000
F858        F  0.75656712  0.33617891  0.57882545    -0.13700
C859        C  0.58797632  0.16111749  0.71730570     0.24400
C860        C  0.61039225  0.18893297  0.69811442    -0.23700
C861        C  0.63003905  0.21937418  0.71773070     0.19300
C862        C  0.63262374  0.21825947  0.75563803     0.24300
C863        C  0.61476553  0.18724445  0.77460201    -0.23700
C864        C  0.58995162  0.16044691  0.75538007     0.19200
F865        F  0.57182062  0.13043351  0.77290148    -0.13700
F866        F  0.56862653  0.13129671  0.69932199    -0.16000
F867        F  0.65541035  0.24560082  0.77356673    -0.16000
F868        F  0.65007886  0.24802026  0.70003606    -0.13700
C869        C  0.87143470  0.41737330  0.77321290     0.24400
C870        C  0.84754718  0.38899368  0.79023770    -0.23700
C871        C  0.82455948  0.36302519  0.76843531     0.19300
C872        C  0.82959022  0.36146562  0.73090365     0.24300
C873        C  0.85680671  0.38669817  0.71413412    -0.23700
C874        C  0.87583549  0.41639942  0.73527215     0.19200
F875        F  0.90174895  0.44174778  0.71985334    -0.13700
F876        F  0.89373194  0.44322263  0.79340764    -0.16000
F877        F  0.80972191  0.33328206  0.71119814    -0.16000
F878        F  0.79937983  0.33686257  0.78375872    -0.13700
C879        C  0.71349905  0.28264805  0.91029557     0.24400
C880        C  0.72048817  0.24364383  0.92162835    -0.23700
C881        C  0.75420929  0.23509210  0.94299554     0.19300
C882        C  0.78341968  0.26387993  0.94847458     0.24300
C883        C  0.77967512  0.30074520  0.93139939    -0.23700
C884        C  0.74320419  0.31123478  0.91502422     0.19200
F885        F  0.73853532  0.34699034  0.89892199    -0.13700
F886        F  0.68065885  0.29150595  0.89012757    -0.16000
F887        F  0.81719084  0.25436268  0.96705951    -0.16000
F888        F  0.76052344  0.19785666  0.95560844    -0.13700
C889        C  0.74251427  0.98823057  0.61723443     0.24400
C890        C  0.71767159  0.96684116  0.64020149    -0.23700
C891        C  0.69619219  0.98734974  0.66708163     0.19300
C892        C  0.69429565  0.02871357  0.66703130     0.24300
C893        C  0.71327690  0.04982240  0.63954237    -0.23700
C894        C  0.74024030  0.02966091  0.61683353     0.19200
F895        F  0.76053614  0.04943939  0.59112728    -0.13700
F896        F  0.76438852  0.96919414  0.59155996    -0.16000
F897        F  0.66959961  0.04738964  0.69071762    -0.16000
F898        F  0.67323879  0.96725430  0.69063250    -0.13700
C899        C  0.79549315  0.73823453  0.53859256     0.24400
C900        C  0.78729838  0.70313249  0.55722910    -0.23700
C901        C  0.74848310  0.69583345  0.56888374     0.19300
C902        C  0.72025841  0.72625441  0.56795541     0.24300
C903        C  0.73115949  0.76391021  0.55569277    -0.23700
C904        C  0.76723502  0.76855162  0.53762575     0.19200
F905        F  0.77648136  0.80374435  0.52233587    -0.13700
F906        F  0.83205418  0.74466752  0.52465616    -0.16000
F907        F  0.68455951  0.72057239  0.58382162    -0.16000
F908        F  0.73963374  0.66166474  0.58610196    -0.13700
C909        C  0.68704990  0.01883273  0.81559757     0.24400
C910        C  0.70347399  0.04303502  0.84317171    -0.23700
C911        C  0.72563435  0.02558011  0.87134393     0.19300
C912        C  0.72666157  0.98425607  0.87464663     0.24300
C913        C  0.70613000  0.95995195  0.84936314    -0.23700
C914        C  0.68934901  0.97748818  0.81810170     0.19200
F915        F  0.67156859  0.95492527  0.79172114    -0.13700
F916        F  0.66614065  0.03519312  0.78774996    -0.16000
F917        F  0.74488741  0.96833417  0.90416029    -0.16000
F918        F  0.74183237  0.04853462  0.89828467    -0.13700
C919        C  0.65551744  0.78763771  0.75626639     0.24400
C920        C  0.62852838  0.81193902  0.77529348    -0.23700
C921        C  0.60160243  0.83543040  0.75534410     0.19300
C922        C  0.60577770  0.83913938  0.71762450     0.24300
C923        C  0.63666342  0.81900730  0.69942688    -0.23700
C924        C  0.65937993  0.79096179  0.71866945     0.19200
F925        F  0.68707076  0.76840018  0.70142922    -0.13700
F926        F  0.68048538  0.76295310  0.77451694    -0.16000
F927        F  0.58213411  0.86530103  0.69970077    -0.16000
F928        F  0.57433107  0.85832767  0.77274146    -0.13700
C929        C  0.86021174  0.58034085  0.72705245     0.24400
C930        C  0.84207620  0.61252165  0.70902410    -0.23700
C931        C  0.82364475  0.64240204  0.73004723     0.19300
C932        C  0.82833824  0.64335364  0.76773032     0.24300
C933        C  0.85031953  0.61364590  0.78551404    -0.23700
C934        C  0.86425355  0.58091581  0.76512928     0.19200
F935        F  0.88515583  0.55151593  0.78159023    -0.13700
F936        F  0.87692578  0.55001385  0.70787924    -0.16000
F937        F  0.81343380  0.67489120  0.78661745    -0.16000
F938        F  0.80346924  0.67256108  0.71397286    -0.13700
C939        C  0.80266139  0.74815173  0.93226458     0.24400
C940        C  0.79636297  0.70840009  0.92120108    -0.23700
C941        C  0.75753993  0.69669957  0.91095820     0.19300
C942        C  0.72670964  0.72486848  0.90858648     0.24300
C943        C  0.73394186  0.76519036  0.91705148    -0.23700
C944        C  0.77169352  0.77596690  0.93075381     0.19200
F945        F  0.77937218  0.81415941  0.94083379    -0.13700
F946        F  0.83946162  0.76093239  0.94239642    -0.16000
F947        F  0.69081386  0.71314401  0.89506113    -0.16000
F948        F  0.75005787  0.65867736  0.90018817    -0.13700
C949        C  0.02481654  0.30066352  0.65555330     0.24400
C950        C  0.00157699  0.29232964  0.62428761    -0.23700
C951        C  0.02020648  0.27630405  0.59330897     0.19300
C952        C  0.06165812  0.27525905  0.59155728     0.24300
C953        C  0.08467239  0.29023146  0.62073808    -0.23700
C954        C  0.06620550  0.29974882  0.65366920     0.19200
F955        F  0.08816046  0.31237415  0.68279638    -0.13700
F956        F  0.00788836  0.31439800  0.68658607    -0.16000
F957        F  0.07886544  0.26522598  0.55953506    -0.16000
F958        F  0.99864578  0.26613511  0.56317076    -0.13700
C959        C  0.28360988  0.24432082  0.54968198     0.24400
C960        C  0.28705583  0.28319950  0.56369648    -0.23700
C961        C  0.32246439  0.29482912  0.58139347     0.19300
C962        C  0.35184384  0.26662598  0.58907355     0.24300
C963        C  0.34664521  0.22673075  0.57813387    -0.23700
C964        C  0.31322510  0.21629665  0.55669404     0.19200
F965        F  0.30766187  0.17831703  0.54477475    -0.13700
F966        F  0.24991078  0.23256002  0.53194512    -0.16000
F967        F  0.38324962  0.27760776  0.61043045    -0.16000
F968        F  0.32656772  0.33220608  0.59525560    -0.13700
C969        C  0.39347035  0.20205941  0.78305361     0.24400
C970        C  0.41640293  0.17716223  0.80547363    -0.23700
C971        C  0.44837300  0.15582313  0.79017403     0.19300
C972        C  0.45499748  0.15681092  0.75263150     0.24300
C973        C  0.42962329  0.17893525  0.72996547    -0.23700
C974        C  0.40006550  0.20294624  0.74572159     0.19200
F975        F  0.37553542  0.22510491  0.72447859    -0.13700
F976        F  0.36297248  0.22377512  0.79689774    -0.16000
F977        F  0.48314829  0.13261251  0.73804585    -0.16000
F978        F  0.47061681  0.13086041  0.81080335    -0.13700
C979        C  0.00644147  0.28946990  0.87693206     0.24400
C980        C  0.98275470  0.31224735  0.85342033    -0.23700
C981        C  0.00029029  0.33070137  0.82374737     0.19300
C982        C  0.04146454  0.33052744  0.82018899     0.24300
C983        C  0.06572133  0.31361823  0.84737239    -0.23700
C984        C  0.04788048  0.29050066  0.87422262     0.19200
F985        F  0.07021951  0.27343744  0.90074623    -0.13700
F986        F  0.99004663  0.27148521  0.90587036    -0.16000
F987        F  0.05751474  0.35162627  0.79288624    -0.16000
F988        F  0.97794817  0.35291654  0.80064772    -0.13700
C989        C  0.18879935  0.42335016  0.74796912     0.24400
C990        C  0.20997461  0.39673359  0.77024890    -0.23700
C991        C  0.23660101  0.36981096  0.75390275     0.19300
C992        C  0.23898173  0.36663530  0.71617344     0.24300
C993        C  0.21382885  0.38932242  0.69374843    -0.23700
C994        C  0.19026307  0.41931553  0.70990453     0.19200
F995        F  0.16592363  0.44223009  0.68920069    -0.13700
F996        F  0.16375022  0.45059161  0.76285242    -0.16000
F997        F  0.26399998  0.33913634  0.70161641    -0.16000
F998        F  0.25845244  0.34440418  0.77443752    -0.13700
C999        C  0.32377306  0.28281291  0.92154406     0.24400
C1000       C  0.31153478  0.24596258  0.93508640    -0.23700
C1001       C  0.27286291  0.24242680  0.94855544     0.19300
C1002       C  0.24511945  0.27277669  0.94331728     0.24300
C1003       C  0.25593341  0.30757709  0.92531866    -0.23700
C1004       C  0.29630182  0.31396742  0.91780712     0.19200
F1005       F  0.30838060  0.34867759  0.90329478    -0.13700
F1006       F  0.36072114  0.28716194  0.90776853    -0.16000
F1007       F  0.20690616  0.26676772  0.95327871    -0.16000
F1008       F  0.26090528  0.20811991  0.96387386    -0.13700
C1009       C  0.03879703  0.66858061  0.68437221     0.24400
C1010       C  0.06341453  0.68124204  0.65624259    -0.23700
C1011       C  0.04648801  0.70266888  0.62729013     0.19300
C1012       C  0.00522070  0.70461597  0.62315562     0.24300
C1013       C  0.98088326  0.68557464  0.64811654    -0.23700
C1014       C  0.99764372  0.66996842  0.67990262     0.19200
F1015       F  0.97435289  0.65185687  0.70450280    -0.13700
F1016       F  0.05428036  0.65030553  0.71400405    -0.16000
F1017       F  0.98951536  0.71938926  0.59195974    -0.16000
F1018       F  0.06949041  0.71719522  0.60055309    -0.13700
C1019       C  0.36640104  0.97149177  0.67357057     0.24400
C1020       C  0.34634012  0.95297912  0.64427399    -0.23700
C1021       C  0.32654151  0.97658738  0.61846408     0.19300
C1022       C  0.33226738  0.01773134  0.61877209     0.24300
C1023       C  0.35737432  0.03543846  0.64518198    -0.23700
C1024       C  0.37162253  0.01244927  0.67418152     0.19200
F1025       F  0.39411229  0.02892114  0.70132231    -0.13700
F1026       F  0.38468522  0.94960213  0.69963570    -0.16000
F1027       F  0.31687174  0.03934219  0.59107066    -0.16000
F1028       F  0.30589139  0.95963029  0.59039080    -0.13700
C1029       C  0.31829089  0.71034734  0.58710194     0.24400
C1030       C  0.30624098  0.75014292  0.58331951    -0.23700
C1031       C  0.26558395  0.75877076  0.57867661     0.19300
C1032       C  0.23733830  0.72883835  0.58107901     0.24300
C1033       C  0.24899845  0.68992941  0.58982057    -0.23700
C1034       C  0.28978495  0.68038189  0.59065190     0.19200
F1035       F  0.30213967  0.64290300  0.59805082    -0.13700
F1036       F  0.35736559  0.70100399  0.59117506    -0.16000
F1037       F  0.19829400  0.73871388  0.57754432    -0.16000
F1038       F  0.25281948  0.79675384  0.57436229    -0.13700
C1039       C  0.06313557  0.68331360  0.85508052     0.24400
C1040       C  0.08012075  0.69754480  0.88766555    -0.23700
C1041       C  0.05593764  0.71697300  0.91325822     0.19300
C1042       C  0.01454173  0.71622245  0.90880773     0.24300
C1043       C  0.99731698  0.69596825  0.87880612    -0.23700
C1044       C  0.02202438  0.68248571  0.85058782     0.19200
F1045       F  0.00669689  0.66413923  0.82047233    -0.13700
F1046       F  0.08626657  0.66636206  0.82912265    -0.16000
F1047       F  0.99149608  0.73144178  0.93566907    -0.16000
F1048       F  0.07181370  0.73222359  0.94453672    -0.13700
C1049       C  0.19782419  0.57804847  0.80221973     0.24400
C1050       C  0.21561251  0.61228462  0.81773781    -0.23700
C1051       C  0.23533514  0.63859826  0.79485211     0.19300
C1052       C  0.23369671  0.63324110  0.75719999     0.24300
C1053       C  0.21179557  0.60170003  0.74134830    -0.23700
C1054       C  0.19610075  0.57269772  0.76424499     0.19200
F1055       F  0.17595025  0.54115085  0.74999196    -0.13700
F1056       F  0.17872081  0.55180148  0.82343775    -0.16000
F1057       F  0.25119075  0.66081893  0.73616978    -0.16000
F1058       F  0.25407345  0.67121758  0.80876401    -0.13700
C1059       C  0.35634582  0.98044666  0.83303294     0.24400
C1060       C  0.34294482  0.95606319  0.86100332    -0.23700
C1061       C  0.31829010  0.97268547  0.88792097     0.19300
C1062       C  0.31375094  0.01396127  0.89073310     0.24300
C1063       C  0.33326483  0.03862386  0.86628871    -0.23700
C1064       C  0.35139563  0.02153139  0.83565176     0.19200
F1065       F  0.36863615  0.04487555  0.81058770    -0.13700
F1066       F  0.37841218  0.96516617  0.80550641    -0.16000
F1067       F  0.29559988  0.02970991  0.92037135    -0.16000
F1068       F  0.30325887  0.94976346  0.91444496    -0.13700
C1069       C  0.46284019  0.83655786  0.76504384     0.24400
C1070       C  0.43799128  0.81398558  0.78717031    -0.23700
C1071       C  0.41223800  0.78606070  0.77071204     0.19300
C1072       C  0.40709299  0.78477235  0.73310610     0.24300
C1073       C  0.42864508  0.81037203  0.71099396    -0.23700
C1074       C  0.45845341  0.83448128  0.72705085     0.19200
F1075       F  0.47999036  0.85945586  0.70647618    -0.13700
F1076       F  0.48778189  0.86402321  0.78008006    -0.16000
F1077       F  0.37842317  0.76083824  0.71858446    -0.16000
F1078       F  0.38902444  0.76260041  0.79127625    -0.13700
C1079       C  0.30737678  0.78353928  0.95514625     0.24400
C1080       C  0.34290303  0.77215823  0.93814656    -0.23700
C1081       C  0.35107550  0.73148475  0.93266842     0.19300
C1082       C  0.32199304  0.70312518  0.93999024     0.24300
C1083       C  0.28440665  0.71538809  0.95224306    -0.23700
C1084       C  0.27853005  0.75534317  0.96238826     0.19200
F1085       F  0.24328870  0.76775614  0.97622451    -0.13700
F1086       F  0.29911926  0.82238759  0.96222381    -0.16000
F1087       F  0.32910004  0.66443373  0.93131514    -0.16000
F1088       F  0.38535184  0.71945464  0.91677071    -0.13700
loop_ 
_geom_bond_atom_site_label_1 
_geom_bond_atom_site_label_2 
_geom_bond_distance 
_geom_bond_site_symmetry_2 
_ccdc_geom_bond_type 
C1            C2   1.515   1_556  S
C1            C5   1.530   1_556  S
C1          C551   1.537       .  S
C1           C37   1.599   1_565  S
C2            H9   1.067       .  S
C2            C3   1.359       .  D
C3          C548   1.551   1_554  S
C3           C15   1.546       .  S
C4            C8   1.559       .  S
C4          C547   1.552       .  S
C4          C550   1.556       .  S
C4           H10   1.110       .  S
C5           H11   1.086       .  S
C5            C6   1.384       .  D
C6          C548   1.555   1_554  S
C6          C250   1.460       .  S
C7          C545   1.533       .  S
C7           H12   1.087       .  S
C7            C8   1.378       .  D
C8          C215   1.489       .  S
C13          C14   1.544       .  S
C13          C19   1.520       .  S
C13         C561   1.553   1_554  S
C13         C569   1.606   1_565  S
C14          H21   1.086       .  S
C14          C15   1.357       .  D
C15          C16   1.562       .  S
C16          C20   1.592       .  S
C16         C562   1.523   1_554  S
C16          H22   1.110       .  S
C17         C557   1.557       .  S
C17          H23   1.087       .  S
C17          C18   1.360       .  D
C18         C560   1.520       .  S
C18         C107   1.476       .  S
C19          H24   1.086       .  S
C19          C20   1.397       .  D
C20         C124   1.476       .  S
C25          C26   1.520       .  S
C25          C31   1.535       .  S
C25         C573   1.530       .  S
C25         C557   1.603   1_545  S
C26          H33   1.067       .  S
C26          C27   1.359       .  D
C27          C28   1.548       .  S
C27         C586   1.544       .  S
C28          C32   1.565       .  S
C28         C574   1.554       .  S
C28          H34   1.110       .  S
C29         C569   1.529       .  S
C29          H35   1.087       .  S
C29          C30   1.372       .  D
C30         C572   1.557       .  S
C30         C198   1.483       .  S
C31          H36   1.086       .  S
C31          C32   1.389       .  D
C32         C163   1.478       .  S
C37          C38   1.566   1_556  S
C37          C41   1.542       .  S
C37         C587   1.514       .  S
C38          H45   1.086       .  S
C38          C39   1.366       .  D
C39          C40   1.521   1_554  S
C39         C293   1.490       .  S
C40          C42   1.564       .  S
C40         C588   1.584       .  S
C40          H46   1.110       .  S
C41         H591   1.086       .  S
C41          C42   1.355       .  D
C42         C571   1.545       .  S
C43         C581   1.518       .  S
C43          H48   1.086       .  S
C43          C44   1.397       .  D
C44         C584   1.584       .  S
C44         C276   1.466       .  S
H47         C585   1.086       .  S
C49          C50   1.536   1_455  S
C49          C55   1.515   1_455  S
C49         C597   1.555   1_455  S
C49          C85   1.584       .  S
C50          H57   1.071   1_655  S
C50          C51   1.360       .  D
C51          C52   1.549       .  S
C51          C63   1.535       .  S
C52          C56   1.570       .  S
C52         C598   1.528       .  S
C52          H58   1.110       .  S
C53         C593   1.547   1_654  S
C53          H59   1.086   1_655  S
C53          C54   1.370       .  D
C54         C596   1.527       .  S
C54         C289   1.473       .  S
C55          H60   1.086       .  S
C55          C56   1.382       .  D
C56         C254   1.460       .  S
C61          C62   1.534   1_455  S
C61          C65   1.558   1_455  S
C61         C611   1.517   1_455  S
C61          C73   1.590       .  S
C62          H69   1.079   1_655  S
C62          C63   1.358       .  D
C63         C608   1.552       .  S
C64          C68   1.569   1_556  S
C64         C607   1.546   1_556  S
C64         C610   1.524       .  S
C64          H70   1.111       .  S
C65          H71   1.086   1_655  S
C65          C66   1.376       .  D
C66         C608   1.527       .  S
C66         C211   1.488       .  S
C67         C605   1.516   1_655  S
C67          H72   1.086       .  S
C67          C68   1.381       .  D
C68         C228   1.459       .  S
C73          C74   1.535       .  S
C73          C79   1.522       .  S
C73         C621   1.555       .  S
C74          H81   1.079       .  S
C74          C75   1.361       .  D
C75          C76   1.543       .  S
C75          C87   1.528       .  S
C76          C80   1.571       .  S
C76         C622   1.527       .  S
C76          H82   1.110       .  S
C77         C617   1.556       .  S
C77          H83   1.086       .  S
C77          C78   1.372       .  D
C78         C620   1.527       .  S
C78         C146   1.488       .  S
C79          H84   1.086       .  S
C79          C80   1.387       .  D
C80         C111   1.469       .  S
C85          C86   1.533       .  S
C85          C89   1.555       .  S
C85         C635   1.519       .  S
C86          H93   1.065       .  S
C86          C87   1.357       .  D
C87         C632   1.544       .  S
C88          C92   1.570   1_556  S
C88         C631   1.547   1_556  S
C88         C634   1.530       .  S
C88          H94   1.110       .  S
C89          H95   1.086       .  S
C89          C90   1.375       .  D
C90         C632   1.526       .  S
C90         C159   1.479       .  S
C91         C629   1.521   1_554  S
C91          H96   1.086       .  S
C91          C92   1.385       .  D
C92         C176   1.467       .  S
In97         O99   2.227       .  S
In97        O100   2.286       .  S
In97        O108   2.251       .  S
In97        O102   2.221       .  S
In97        O104   2.253       .  S
In97        O105   2.274       .  S
In97        O106   2.234       .  S
In97        O109   2.227       .  S
C98         O104   1.262       .  A
C98         O106   1.260       .  A
C98         C516   1.479       .  S
O99         C107   1.253       .  A
O100        C107   1.260       .  A
C101        O108   1.265       .  A
C101        O102   1.262       .  A
C101        C536   1.480       .  S
C103        O105   1.266       .  A
C103        O109   1.259       .  A
C103        C526   1.483       .  S
In110       O112   2.259       .  S
In110       O113   2.219       .  S
In110       O121   2.228       .  S
In110       O115   2.272       .  S
In110       O117   2.279       .  S
In110       O118   2.256       .  S
In110       O119   2.212       .  S
In110       O122   2.225       .  S
C111        O117   1.266       .  A
C111        O119   1.254       .  A
O112        C120   1.264       .  A
O113        C120   1.260       .  A
C114        O121   1.262       .  A
C114        O115   1.267       .  A
C114        C506   1.489       .  S
C116        O118   1.264       .  A
C116        O122   1.259       .  A
C116        C496   1.471       .  S
C120        C539   1.475       .  S
In123       O125   2.262       .  S
In123       O126   2.213       .  S
In123       O134   2.239       .  S
In123       O128   2.264       .  S
In123       O130   2.290       .  S
In123       O131   2.243       .  S
In123       O132   2.214       .  S
In123       O135   2.232       .  S
C124        O130   1.266       .  A
C124        O132   1.255       .  A
O125        C133   1.266       .  A
O126        C133   1.260       .  A
C127        O134   1.260       .  A
C127        O128   1.265       .  A
C127        C529   1.482       .  S
C129        O131   1.261       .  A
C129        O135   1.259       .  A
C129        C476   1.471       .  S
C133        C486   1.474       .  S
In136       O138   2.260       .  S
In136       O139   2.288       .  S
In136       O147   2.247       .  S
In136       O141   2.225       .  S
In136       O143   2.231       .  S
In136       O144   2.290       .  S
In136       O145   2.219       .  S
In136       O148   2.222       .  S
C137        O143   1.263       .  A
C137        O145   1.261       .  A
C137        C466   1.472       .  S
O138        C146   1.253       .  A
O139        C146   1.262       .  A
C140        O147   1.266       .  A
C140        O141   1.262       .  A
C140        C489   1.484       .  S
C142        O144   1.268       .  A
C142        O148   1.256       .  A
C142        C509   1.488       .  S
In149       O151   2.251       .  S
In149       O152   2.267       .  S
In149       O160   2.265       .  S
In149       O154   2.220       .  S
In149       O156   2.236       .  S
In149       O157   2.281       .  S
In149       O158   2.228       .  S
In149       O161   2.225       .  S
C150        O156   1.261       .  A
C150        O158   1.260       .  A
C150        C439   1.474       .  S
O151        C159   1.252       .  A
O152        C159   1.262       .  A
C153        O160   1.267       .  A
C153        O154   1.261       .  A
C153        C459   1.482       .  S
C155        O157   1.265       .  A
C155        O161   1.258       .  A
C155        C446   1.483       .  S
In162       O164   2.257       .  S
In162       O165   2.225       .  S
In162       O173   2.228       .  S
In162       O167   2.266       .  S
In162       O169   2.275       .  S
In162       O170   2.258       .  S
In162       O171   2.236       .  S
In162       O174   2.216       .  S
C163        O169   1.265       .  A
C163        O171   1.257       .  A
O164        C172   1.263       .  A
O165        C172   1.261       .  A
C166        O173   1.261       .  A
C166        O167   1.267       .  A
C166        C426   1.483       .  S
C168        O170   1.265       .  A
C168        O174   1.260       .  A
C168        C519   1.472       .  S
C172        C456   1.479       .  S
In175       O177   2.273       .  S
In175       O178   2.197       .  S
In175       O186   2.230       .  S
In175       O180   2.273       .  S
In175       O182   2.280       .  S
In175       O183   2.254       .  S
In175       O184   2.212       .  S
In175       O187   2.235       .  S
C176        O182   1.264       .  A
C176        O184   1.252       .  A
O177        C185   1.264       .  A
O178        C185   1.258       .  A
C179        O186   1.261       .  A
C179        O180   1.266       .  A
C179        C449   1.488       .  S
C181        O183   1.261       .  A
C181        O187   1.260       .  A
C181        C409   1.469       .  S
C185        C416   1.474       .  S
In188       O190   2.286       .  S
In188       O191   2.241       .  S
In188       O199   2.248       .  S
In188       O193   2.198       .  S
In188       O195   2.261       .  S
In188       O196   2.275       .  S
In188       O197   2.214       .  S
In188       O200   2.207       .  S
C189        O195   1.264       .  A
C189        O197   1.254       .  A
C189        C479   1.474       .  S
O190        C198   1.257       .  A
O191        C198   1.257       .  A
C192        O199   1.268       .  A
C192        O193   1.266       .  A
C192        C419   1.479       .  S
C194        O196   1.269       .  A
C194        O200   1.257       .  A
C194        C429   1.484       .  S
In201       O203   2.267       .  S
In201       O204   2.278       .  S
In201       O212   2.252       .  S
In201       O206   2.227       .  S
In201       O208   2.246       .  S
In201       O209   2.295       .  S
In201       O210   2.220       .  S
In201       O213   2.205       .  S
C202        O208   1.263       .  A
C202        O210   1.261       .  A
C202        C499   1.478       .  S
O203        C211   1.256       .  A
O204        C211   1.263       .  A
C205        O212   1.266       .  A
C205        O206   1.263       .  A
C205        C396   1.485       .  S
C207        O209   1.268       .  A
C207        O213   1.256       .  A
C207        C389   1.482       .  S
In214       O216   2.271       .  S
In214       O217   2.225       .  S
In214       O225   2.226       .  S
In214       O219   2.274       .  S
In214       O221   2.309       .  S
In214       O222   2.260       .  S
In214       O223   2.225       .  S
In214       O226   2.208       .  S
C215        O221   1.266       .  A
C215        O223   1.257       .  A
O216        C224   1.266       .  A
O217        C224   1.260       .  A
C218        O225   1.260       .  A
C218        O219   1.267       .  A
C218        C376   1.481       .  S
C220        O222   1.263       .  A
C220        O226   1.258       .  A
C220        C369   1.474       .  S
C224        C399   1.481       .  S
In227       O229   2.238       .  S
In227       O230   2.198       .  S
In227       O238   2.207       .  S
In227       O232   2.254       .  S
In227       O234   2.260       .  S
In227       O235   2.247       .  S
In227       O236   2.197       .  S
In227       O239   2.214       .  S
C228        O234   1.266       .  A
C228        O236   1.256       .  A
O229        C237   1.264       .  A
O230        C237   1.262       .  A
C231        O238   1.262       .  A
C231        O232   1.267       .  A
C231        C386   1.483       .  S
C233        O235   1.264       .  A
C233        O239   1.261       .  A
C233        C469   1.464       .  S
C237        C356   1.466       .  S
In240       O242   2.213       .  S
In240       O243   2.247       .  S
In240       O251   2.241       .  S
In240       O245   2.208       .  S
In240       O247   2.251       .  S
In240       O248   2.268       .  S
In240       O249   2.207       .  S
In240       O252   2.213       .  S
C241        O247   1.264       .  A
C241        O249   1.262       .  A
C241        C346   1.469       .  S
O242        C250   1.256       .  A
O243        C250   1.265       .  A
C244        O251   1.262       .  A
C244        O245   1.262       .  A
C244        C359   1.467       .  S
C246        O248   1.266       .  A
C246        O252   1.262       .  A
C246        C379   1.481       .  S
In253       O255   2.236       .  S
In253       O256   2.201       .  S
In253       O264   2.205       .  S
In253       O258   2.267       .  S
In253       O260   2.267       .  S
In253       O261   2.237       .  S
In253       O262   2.194       .  S
In253       O265   2.212       .  S
C254        O260   1.266       .  A
C254        O262   1.254       .  A
O255        C263   1.265       .  A
O256        C263   1.261       .  A
C257        O264   1.261       .  A
C257        O258   1.267       .  A
C257        C326   1.479       .  S
C259        O261   1.263       .  A
C259        O265   1.261       .  A
C259        C436   1.460       .  S
C263        C339   1.467       .  S
In266       O268   2.197       .  S
In266       O269   2.272       .  S
In266       O277   2.243       .  S
In266       O271   2.212       .  S
In266       O273   2.243       .  S
In266       O274   2.276       .  S
In266       O275   2.221       .  S
In266       O278   2.221       .  S
C267        O273   1.265       .  A
C267        O275   1.262       .  A
C267        C366   1.469       .  S
O268        C276   1.255       .  A
O269        C276   1.269       .  A
C270        O277   1.264       .  A
C270        O271   1.263       .  A
C270        C336   1.468       .  S
C272        O274   1.266       .  A
C272        O278   1.261       .  A
C272        C319   1.484       .  S
In279       O281   2.236       .  S
In279       O282   2.265       .  S
In279       O290   2.265       .  S
In279       O284   2.240       .  S
In279       O286   2.229       .  S
In279       O287   2.276       .  S
In279       O288   2.238       .  S
In279       O291   2.197       .  S
C280        O286   1.263       .  A
C280        O288   1.262       .  A
C280        C406   1.477       .  S
O281        C289   1.254       .  A
O282        C289   1.262       .  A
C283        O290   1.264       .  A
C283        O284   1.260       .  A
C283        C306   1.489       .  S
C285        O287   1.263       .  A
C285        O291   1.257       .  A
C285        C329   1.473       .  S
In292       O294   2.279       .  S
In292       O295   2.241       .  S
In292       O303   2.220       .  S
In292       O297   2.298       .  S
In292       O299   2.294       .  S
In292       O300   2.241       .  S
In292       O301   2.250       .  S
In292       O304   2.228       .  S
C293        O299   1.266       .  A
C293        O301   1.255       .  A
O294        C302   1.266       .  A
O295        C302   1.258       .  A
C296        O303   1.257       .  A
C296        O297   1.264       .  A
C296        C316   1.483       .  S
C298        O300   1.261       .  A
C298        O304   1.260       .  A
C298        C349   1.472       .  S
C302        C309   1.492       .  S
C305        C306   1.408       .  A
C305        C310   1.401       .  A
C305        F312   1.358       .  S
C306        C307   1.409       .  A
C307        C308   1.405       .  A
C307        F314   1.357       .  S
C308        C309   1.409       .  A
C308        F313   1.357       .  S
C309        C310   1.411       .  A
C310        F311   1.358       .  S
C315        C316   1.409       .  A
C315        C320   1.408       .  A
C315        F322   1.358       .  S
C316        C317   1.406       .  A
C317        C318   1.396       .  A
C317        F324   1.358       .  S
C318        C319   1.405       .  A
C318        F323   1.358       .  S
C319        C320   1.410       .  A
C320        F321   1.358       .  S
C325        C326   1.411       .  A
C325        C330   1.405       .  A
C325        F332   1.358       .  S
C326        C327   1.406       .  A
C327        C328   1.391       .  A
C327        F334   1.358       .  S
C328        C329   1.404       .  A
C328        F333   1.359       .  S
C329        C330   1.407       .  A
C330        F331   1.358       .  S
C335        C336   1.403       .  A
C335        C340   1.397       .  A
C335        F342   1.357       .  S
C336        C337   1.404       .  A
C337        C338   1.394       .  A
C337        F344   1.358       .  S
C338        C339   1.405       .  A
C338        F343   1.359       .  S
C339        C340   1.405       .  A
C340        F341   1.358       .  S
C345        C346   1.405       .  A
C345        C350   1.399   1_565  A
C345        F352   1.358       .  S
C346        C347   1.403       .  A
C347        C348   1.392   1_565  A
C347        F354   1.358       .  S
C348        C349   1.407       .  A
C348        F353   1.358       .  S
C349        C350   1.408       .  A
C350        F351   1.358       .  S
C355        C356   1.404       .  A
C355        C360   1.392       .  A
C355        F362   1.358       .  S
C356        C357   1.405       .  A
C357        C358   1.397       .  A
C357        F364   1.358       .  S
C358        C359   1.406       .  A
C358        F363   1.358       .  S
C359        C360   1.404       .  A
C360        F361   1.358       .  S
C365        C366   1.403       .  A
C365        C370   1.394   1_545  A
C365        F372   1.358       .  S
C366        C367   1.407       .  A
C367        C368   1.399   1_545  A
C367        F374   1.358       .  S
C368        C369   1.407       .  A
C368        F373   1.358       .  S
C369        C370   1.408       .  A
C370        F371   1.359       .  S
C375        C376   1.406       .  A
C375        C380   1.396       .  A
C375        F382   1.358       .  S
C376        C377   1.409       .  A
C377        C378   1.406       .  A
C377        F384   1.358       .  S
C378        C379   1.409       .  A
C378        F383   1.358       .  S
C379        C380   1.406       .  A
C380        F381   1.358       .  S
C385        C386   1.411       .  A
C385        C390   1.405       .  A
C385        F392   1.357       .  S
C386        C387   1.407       .  A
C387        C388   1.394       .  A
C387        F394   1.359       .  S
C388        C389   1.408       .  A
C388        F393   1.359       .  S
C389        C390   1.406       .  A
C390        F391   1.357       .  S
C395        C396   1.408       .  A
C395        C400   1.398       .  A
C395        F402   1.358       .  S
C396        C397   1.410       .  A
C397        C398   1.404       .  A
C397        F404   1.358       .  S
C398        C399   1.406       .  A
C398        F403   1.358       .  S
C399        C400   1.406       .  A
C400        F401   1.358       .  S
C405        C406   1.408   1_455  A
C405        C410   1.398       .  A
C405        F412   1.358       .  S
C406        C407   1.407   1_655  A
C407        C408   1.396       .  A
C407        F414   1.358   1_455  S
C408        C409   1.405       .  A
C408        F413   1.358       .  S
C409        C410   1.403       .  A
C410        F411   1.358       .  S
C415        C416   1.403       .  A
C415        C420   1.390       .  A
C415        F422   1.358       .  S
C416        C417   1.406       .  A
C417        C418   1.404       .  A
C417        F424   1.358       .  S
C418        C419   1.411       .  A
C418        F423   1.358       .  S
C419        C420   1.406       .  A
C420        F421   1.358       .  S
C425        C426   1.406       .  A
C425        C430   1.398       .  A
C425        F432   1.359       .  S
C426        C427   1.408       .  A
C427        C428   1.404       .  A
C427        F434   1.357       .  S
C428        C429   1.408       .  A
C428        F433   1.357       .  S
C429        C430   1.410       .  A
C430        F431   1.359       .  S
C435        C436   1.402   1_455  A
C435        C440   1.395       .  A
C435        F442   1.359   1_455  S
C436        C437   1.401   1_655  A
C437        C438   1.395       .  A
C437        F444   1.358   1_455  S
C438        C439   1.409       .  A
C438        F443   1.358       .  S
C439        C440   1.409       .  A
C440        F441   1.358       .  S
C445        C446   1.408       .  A
C445        C450   1.406       .  A
C445        F452   1.358       .  S
C446        C447   1.406       .  A
C447        C448   1.398       .  A
C447        F454   1.358       .  S
C448        C449   1.408       .  A
C448        F453   1.358       .  S
C449        C450   1.411       .  A
C450        F451   1.358       .  S
C455        C456   1.408       .  A
C455        C460   1.402       .  A
C455        F462   1.358       .  S
C456        C457   1.404       .  A
C457        C458   1.396       .  A
C457        F464   1.358       .  S
C458        C459   1.408       .  A
C458        F463   1.358       .  S
C459        C460   1.407       .  A
C460        F461   1.358       .  S
C465        C466   1.407       .  A
C465        C470   1.395   1_455  A
C465        F472   1.359       .  S
C466        C467   1.408       .  A
C467        C468   1.395       .  A
C467        F474   1.358       .  S
C468        C469   1.402   1_455  A
C468        F473   1.358   1_455  S
C469        C470   1.404       .  A
C470        F471   1.358       .  S
C475        C476   1.404       .  A
C475        C480   1.394   1_565  A
C475        F482   1.359       .  S
C476        C477   1.407       .  A
C477        C478   1.397   1_565  A
C477        F484   1.357       .  S
C478        C479   1.404       .  A
C478        F483   1.357       .  S
C479        C480   1.410       .  A
C480        F481   1.359       .  S
C485        C486   1.404       .  A
C485        C490   1.401       .  A
C485        F492   1.358       .  S
C486        C487   1.405       .  A
C487        C488   1.397       .  A
C487        F494   1.358       .  S
C488        C489   1.410       .  A
C488        F493   1.358       .  S
C489        C490   1.410       .  A
C490        F491   1.357       .  S
C495        C496   1.404       .  A
C495        C500   1.395       .  A
C495        F502   1.358       .  S
C496        C497   1.405       .  A
C497        C498   1.400       .  A
C497        F504   1.358       .  S
C498        C499   1.408   1_455  A
C498        F503   1.358   1_455  S
C499        C500   1.408   1_655  A
C500        F501   1.358       .  S
C505        C506   1.411       .  A
C505        C510   1.407       .  A
C505        F512   1.357       .  S
C506        C507   1.408       .  A
C507        C508   1.399       .  A
C507        F514   1.359       .  S
C508        C509   1.409       .  A
C508        F513   1.358       .  S
C509        C510   1.407       .  A
C510        F511   1.357       .  S
C515        C516   1.408       .  A
C515        C520   1.396   1_565  A
C515        F522   1.358       .  S
C516        C517   1.409       .  A
C517        C518   1.400   1_565  A
C517        F524   1.358       .  S
C518        C519   1.405       .  A
C518        F523   1.358       .  S
C519        C520   1.404       .  A
C520        F521   1.358       .  S
C525        C526   1.408       .  A
C525        C530   1.403       .  A
C525        F532   1.358       .  S
C526        C527   1.408       .  A
C527        C528   1.400       .  A
C527        F534   1.358       .  S
C528        C529   1.406       .  A
C528        F533   1.358       .  S
C529        C530   1.408       .  A
C530        F531   1.358       .  S
C535        C536   1.408       .  A
C535        C540   1.397       .  A
C535        F542   1.358       .  S
C536        C537   1.408       .  A
C537        C538   1.401       .  A
C537        F544   1.358       .  S
C538        C539   1.405       .  A
C538        F543   1.358       .  S
C539        C540   1.405       .  A
C540        F541   1.358       .  S
C545        C546   1.515       .  S
C545        C549   1.535       .  S
C545        C581   1.604   1_565  S
C546        H553   1.068       .  S
C546        C547   1.359       .  D
C547        C559   1.548       .  S
C548        C552   1.556       .  S
C548        H554   1.110       .  S
C549        H555   1.086       .  S
C549        C550   1.386       .  D
C550        C794   1.465       .  S
C551        H556   1.087       .  S
C551        C552   1.378       .  D
C552        C759   1.489       .  S
C557        C558   1.544       .  S
C557        C563   1.516       .  S
C558        H565   1.086       .  S
C558        C559   1.357       .  D
C559        C560   1.564       .  S
C560        C564   1.591       .  S
C560        H566   1.110       .  S
C561        H567   1.087       .  S
C561        C562   1.359       .  D
C562        C651   1.475       .  S
C563        H568   1.086       .  S
C563        C564   1.396       .  D
C564        C668   1.469       .  S
C569        C570   1.520   1_554  S
C569        C575   1.537   1_554  S
C570        H577   1.068       .  S
C570        C571   1.361       .  D
C571        C572   1.551   1_556  S
C572        C576   1.565   1_554  S
C572        H578   1.110       .  S
C573        H579   1.087       .  S
C573        C574   1.373       .  D
C574        C742   1.478       .  S
C575        H580   1.086       .  S
C575        C576   1.391       .  D
C576        C707   1.480       .  S
C581        C582   1.559       .  S
C581        C585   1.541       .  S
C582        H589   1.086       .  S
C582        C583   1.364       .  D
C583        C584   1.523       .  S
C583        C837   1.488       .  S
C584        C586   1.565       .  S
C584        H590   1.110       .  S
C585        C586   1.358       .  D
C587        H592   1.086       .  S
C587        C588   1.394       .  D
C588        C820   1.457       .  S
C593        C594   1.537   1_455  S
C593        C599   1.520   1_455  S
C593        C629   1.582       .  S
C594        H601   1.055   1_655  S
C594        C595   1.363       .  D
C595        C596   1.545   1_556  S
C595        C607   1.534   1_556  S
C596        C600   1.571   1_554  S
C596        H602   1.111       .  S
C597        H603   1.086   1_655  S
C597        C598   1.373       .  D
C598        C833   1.481       .  S
C599        H604   1.086       .  S
C599        C600   1.384       .  D
C600        C798   1.464       .  S
C605        C606   1.537   1_455  S
C605        C609   1.560   1_454  S
C605        C617   1.590       .  S
C606        H613   1.064   1_655  S
C606        C607   1.360       .  D
C608        C612   1.572       .  S
C608        H614   1.111       .  S
C609        H615   1.086   1_655  S
C609        C610   1.379       .  D
C610        C755   1.483       .  S
C611        H616   1.086       .  S
C611        C612   1.383       .  D
C612        C772   1.464       .  S
C617        C618   1.533   1_554  S
C617        C623   1.521   1_554  S
C618        H625   1.074       .  S
C618        C619   1.360       .  D
C619        C620   1.549   1_556  S
C619        C631   1.527   1_556  S
C620        C624   1.568   1_554  S
C620        H626   1.110       .  S
C621        H627   1.086       .  S
C621        C622   1.371       .  D
C622        C690   1.481       .  S
C623        H628   1.086       .  S
C623        C624   1.387       .  D
C624        C655   1.464       .  S
C629        C630   1.535   1_556  S
C629        C633   1.546       .  S
C630        H637   1.079       .  S
C630        C631   1.359       .  D
C632        C636   1.570       .  S
C632        H638   1.110       .  S
C633        H639   1.086       .  S
C633        C634   1.369       .  D
C634        C703   1.479       .  S
C635        H640   1.086       .  S
C635        C636   1.384       .  D
C636        C720   1.466       .  S
In641       O643   2.224       .  S
In641       O644   2.282       .  S
In641       O652   2.247       .  S
In641       O646   2.205       .  S
In641       O648   2.247       .  S
In641       O649   2.282       .  S
In641       O650   2.228       .  S
In641       O653   2.204       .  S
C642        O648   1.262       .  A
C642        O650   1.261       .  A
C642       C1060   1.477       .  S
O643        C651   1.253       .  A
O644        C651   1.259       .  A
C645        O652   1.265       .  A
C645        O646   1.262       .  A
C645       C1080   1.474       .  S
C647        O649   1.265       .  A
C647        O653   1.257       .  A
C647       C1070   1.479       .  S
In654       O656   2.264       .  S
In654       O657   2.199       .  S
In654       O665   2.226       .  S
In654       O659   2.275       .  S
In654       O661   2.273       .  S
In654       O662   2.257       .  S
In654       O663   2.211       .  S
In654       O666   2.208       .  S
C655        O661   1.265       .  A
C655        O663   1.252       .  A
O656        C664   1.263       .  A
O657        C664   1.257       .  A
C658        O665   1.262       .  A
C658        O659   1.267       .  A
C658       C1050   1.487       .  S
C660        O662   1.262       .  A
C660        O666   1.261       .  A
C660       C1040   1.467       .  S
C664       C1083   1.472       .  S
In667       O669   2.268       .  S
In667       O670   2.206       .  S
In667       O678   2.222       .  S
In667       O672   2.269       .  S
In667       O674   2.283       .  S
In667       O675   2.257       .  S
In667       O676   2.204       .  S
In667       O679   2.218       .  S
C668        O674   1.265       .  A
C668        O676   1.254       .  A
O669        C677   1.266       .  A
O670        C677   1.258       .  A
C671        O678   1.261       .  A
C671        O672   1.265       .  A
C671       C1073   1.480       .  S
C673        O675   1.261       .  A
C673        O679   1.257       .  A
C673       C1020   1.470       .  S
C677       C1030   1.476       .  S
In680       O682   2.254       .  S
In680       O683   2.265       .  S
In680       O691   2.260       .  S
In680       O685   2.201       .  S
In680       O687   2.231       .  S
In680       O688   2.298       .  S
In680       O689   2.228       .  S
In680       O692   2.213       .  S
C681        O687   1.261       .  A
C681        O689   1.262       .  A
C681       C1010   1.473       .  S
O682        C690   1.255       .  A
O683        C690   1.261       .  A
C684        O691   1.266       .  A
C684        O685   1.260       .  A
C684       C1033   1.478       .  S
C686        O688   1.267       .  A
C686        O692   1.255       .  A
C686       C1053   1.488       .  S
In693       O695   2.245       .  S
In693       O696   2.276       .  S
In693       O704   2.255       .  S
In693       O698   2.219       .  S
In693       O700   2.255       .  S
In693       O701   2.283       .  S
In693       O702   2.213       .  S
In693       O705   2.220       .  S
C694        O700   1.264       .  A
C694        O702   1.259       .  A
C694        C983   1.477       .  S
O695        C703   1.253       .  A
O696        C703   1.260       .  A
C697        O704   1.265       .  A
C697        O698   1.263       .  A
C697       C1003   1.479       .  S
C699        O701   1.266       .  A
C699        O705   1.258       .  A
C699        C990   1.485       .  S
In706       O708   2.262       .  S
In706       O709   2.228       .  S
In706       O717   2.232       .  S
In706       O711   2.262       .  S
In706       O713   2.277       .  S
In706       O714   2.269       .  S
In706       O715   2.240       .  S
In706       O718   2.211       .  S
C707        O713   1.264       .  A
C707        O715   1.256       .  A
O708        C716   1.263       .  A
O709        C716   1.261       .  A
C710        O717   1.262       .  A
C710        O711   1.266       .  A
C710        C970   1.483       .  S
C712        O714   1.264       .  A
C712        O718   1.258       .  A
C712       C1063   1.471       .  S
C716       C1000   1.478       .  S
In719       O721   2.260       .  S
In719       O722   2.207       .  S
In719       O730   2.223       .  S
In719       O724   2.276       .  S
In719       O726   2.279       .  S
In719       O727   2.249       .  S
In719       O728   2.213       .  S
In719       O731   2.224       .  S
C720        O726   1.263       .  A
C720        O728   1.252       .  A
O721        C729   1.263       .  A
O722        C729   1.257       .  A
C723        O730   1.262       .  A
C723        O724   1.266       .  A
C723        C993   1.487       .  S
C725        O727   1.261       .  A
C725        O731   1.260       .  A
C725        C953   1.467       .  S
C729        C960   1.469       .  S
In732       O734   2.274       .  S
In732       O735   2.234       .  S
In732       O743   2.228       .  S
In732       O737   2.207       .  S
In732       O739   2.254       .  S
In732       O740   2.277       .  S
In732       O741   2.207       .  S
In732       O744   2.201       .  S
C733        O739   1.262       .  A
C733        O741   1.257       .  A
C733       C1023   1.472       .  S
O734        C742   1.257       .  A
O735        C742   1.257       .  A
C736        O743   1.267       .  A
C736        O737   1.264       .  A
C736        C963   1.474       .  S
C738        O740   1.268       .  A
C738        O744   1.257       .  A
C738        C973   1.475       .  S
In745       O747   2.262       .  S
In745       O748   2.271       .  S
In745       O756   2.260       .  S
In745       O750   2.238       .  S
In745       O752   2.242       .  S
In745       O753   2.282       .  S
In745       O754   2.212       .  S
In745       O757   2.212       .  S
C746        O752   1.263       .  A
C746        O754   1.260       .  A
C746       C1043   1.475       .  S
O747        C755   1.254       .  A
O748        C755   1.264       .  A
C749        O756   1.265       .  A
C749        O750   1.262       .  A
C749        C940   1.490       .  S
C751        O753   1.266       .  A
C751        O757   1.257       .  A
C751        C933   1.481       .  S
In758       O760   2.270       .  S
In758       O761   2.231       .  S
In758       O769   2.218       .  S
In758       O763   2.283       .  S
In758       O765   2.250       .  S
In758       O766   2.267       .  S
In758       O767   2.289       .  S
In758       O770   2.238       .  S
C759        O765   1.257       .  A
C759        O767   1.262       .  A
O760        C768   1.266       .  A
O761        C768   1.263       .  A
C762        O769   1.258       .  A
C762        O763   1.267       .  A
C762        C920   1.482       .  S
C764        O766   1.262       .  A
C764        O770   1.255       .  A
C764        C913   1.481       .  S
C768        C943   1.489       .  S
In771       O773   2.234       .  S
In771       O774   2.204       .  S
In771       O782   2.217       .  S
In771       O776   2.273       .  S
In771       O778   2.275       .  S
In771       O779   2.240       .  S
In771       O780   2.193       .  S
In771       O783   2.201       .  S
C772        O778   1.267       .  A
C772        O780   1.253       .  A
O773        C781   1.264       .  A
O774        C781   1.261       .  A
C775        O782   1.262       .  A
C775        O776   1.267       .  A
C775        C930   1.488       .  S
C777        O779   1.264       .  A
C777        O783   1.261       .  A
C777       C1013   1.459       .  S
C781        C900   1.463       .  S
In784       O786   2.223       .  S
In784       O787   2.254       .  S
In784       O795   2.228       .  S
In784       O789   2.211       .  S
In784       O791   2.254       .  S
In784       O792   2.260       .  S
In784       O793   2.204       .  S
In784       O796   2.235       .  S
C785        O791   1.266       .  A
C785        O793   1.261       .  A
C785        C890   1.469       .  S
O786        C794   1.255       .  A
O787        C794   1.265       .  A
C788        O795   1.261       .  A
C788        O789   1.264       .  A
C788        C903   1.462       .  S
C790        O792   1.267       .  A
C790        O796   1.264       .  A
C790        C923   1.487       .  S
In797       O799   2.243       .  S
In797       O800   2.209       .  S
In797       O808   2.215       .  S
In797       O802   2.265       .  S
In797       O804   2.266       .  S
In797       O805   2.253       .  S
In797       O806   2.205       .  S
In797       O809   2.204       .  S
C798        O804   1.267       .  A
C798        O806   1.255       .  A
O799        C807   1.263       .  A
O800        C807   1.262       .  A
C801        O808   1.263       .  A
C801        O802   1.268       .  A
C801        C870   1.482       .  S
C803        O805   1.266       .  A
C803        O809   1.261       .  A
C803        C980   1.466       .  S
C807        C883   1.467       .  S
In810       O812   2.194       .  S
In810       O813   2.259       .  S
In810       O821   2.240       .  S
In810       O815   2.201       .  S
In810       O817   2.245       .  S
In810       O818   2.261       .  S
In810       O819   2.223       .  S
In810       O822   2.229       .  S
C811        O817   1.264       .  A
C811        O819   1.261       .  A
C811        C910   1.467       .  S
O812        C820   1.254       .  A
O813        C820   1.267       .  A
C814        O821   1.264       .  A
C814        O815   1.262       .  A
C814        C880   1.462       .  S
C816        O818   1.265       .  A
C816        O822   1.262       .  A
C816        C863   1.481       .  S
In823       O825   2.256       .  S
In823       O826   2.266       .  S
In823       O834   2.276       .  S
In823       O828   2.237       .  S
In823       O830   2.235       .  S
In823       O831   2.291       .  S
In823       O832   2.231       .  S
In823       O835   2.221       .  S
C824        O830   1.262       .  A
C824        O832   1.261       .  A
C824        C950   1.476   1_655  S
O825        C833   1.256       .  A
O826        C833   1.263       .  A
C827        O834   1.265       .  A
C827        O828   1.260       .  A
C827        C850   1.490       .  S
C829        O831   1.263       .  A
C829        O835   1.256       .  A
C829        C873   1.482       .  S
In836       O838   2.272       .  S
In836       O839   2.231       .  S
In836       O847   2.235       .  S
In836       O841   2.278       .  S
In836       O843   2.305       .  S
In836       O844   2.230       .  S
In836       O845   2.238       .  S
In836       O848   2.235       .  S
C837        O843   1.265       .  A
C837        O845   1.253       .  A
O838        C846   1.267       .  A
O839        C846   1.259       .  A
C840        O847   1.257       .  A
C840        O841   1.263       .  A
C840        C860   1.482       .  S
C842        O844   1.261       .  A
C842        O848   1.260       .  A
C842        C893   1.473       .  S
C846        C853   1.490       .  S
C849        C850   1.409       .  A
C849        C854   1.400       .  A
C849        F856   1.358       .  S
C850        C851   1.409       .  A
C851        C852   1.405       .  A
C851        F858   1.357       .  S
C852        C853   1.409       .  A
C852        F857   1.357       .  S
C853        C854   1.410       .  A
C854        F855   1.358       .  S
C859        C860   1.409       .  A
C859        C864   1.404       .  A
C859        F866   1.358       .  S
C860        C861   1.407       .  A
C861        C862   1.399       .  A
C861        F868   1.358       .  S
C862        C863   1.406       .  A
C862        F867   1.358       .  S
C863        C864   1.408       .  A
C864        F865   1.358       .  S
C869        C870   1.410       .  A
C869        C874   1.407       .  A
C869        F876   1.358       .  S
C870        C871   1.405       .  A
C871        C872   1.395       .  A
C871        F878   1.358       .  S
C872        C873   1.406       .  A
C872        F877   1.358       .  S
C873        C874   1.408       .  A
C874        F875   1.358       .  S
C879        C880   1.402       .  A
C879        C884   1.397       .  A
C879        F886   1.358       .  S
C880        C881   1.403       .  A
C881        C882   1.393       .  A
C881        F888   1.358       .  S
C882        C883   1.404       .  A
C882        F887   1.358       .  S
C883        C884   1.406       .  A
C884        F885   1.358       .  S
C889        C890   1.405       .  A
C889        C894   1.397   1_565  A
C889        F896   1.358       .  S
C890        C891   1.405       .  A
C891        C892   1.394   1_565  A
C891        F898   1.358       .  S
C892        C893   1.407       .  A
C892        F897   1.359       .  S
C893        C894   1.408       .  A
C894        F895   1.358       .  S
C899        C900   1.405       .  A
C899        C904   1.393       .  A
C899        F906   1.358       .  S
C900        C901   1.403       .  A
C901        C902   1.395       .  A
C901        F908   1.358       .  S
C902        C903   1.404       .  A
C902        F907   1.358       .  S
C903        C904   1.402       .  A
C904        F905   1.358       .  S
C909        C910   1.401       .  A
C909        C914   1.398   1_545  A
C909        F916   1.358       .  S
C910        C911   1.404       .  A
C911        C912   1.399   1_545  A
C911        F918   1.358       .  S
C912        C913   1.406       .  A
C912        F917   1.357       .  S
C913        C914   1.412       .  A
C914        F915   1.358       .  S
C919        C920   1.407       .  A
C919        C924   1.399       .  A
C919        F926   1.358       .  S
C920        C921   1.407       .  A
C921        C922   1.406       .  A
C921        F928   1.357       .  S
C922        C923   1.410       .  A
C922        F927   1.357       .  S
C923        C924   1.407       .  A
C924        F925   1.358       .  S
C929        C930   1.412       .  A
C929        C934   1.407       .  A
C929        F936   1.357       .  S
C930        C931   1.407       .  A
C931        C932   1.395       .  A
C931        F938   1.358       .  S
C932        C933   1.406       .  A
C932        F937   1.359       .  S
C933        C934   1.407       .  A
C934        F935   1.358       .  S
C939        C940   1.409       .  A
C939        C944   1.399       .  A
C939        F946   1.358       .  S
C940        C941   1.410       .  A
C941        C942   1.406       .  A
C941        F948   1.358       .  S
C942        C943   1.410       .  A
C942        F947   1.358       .  S
C943        C944   1.407       .  A
C944        F945   1.358       .  S
C949        C950   1.409       .  A
C949        C954   1.395       .  A
C949        F956   1.358       .  S
C950        C951   1.408       .  A
C951        C952   1.397       .  A
C951        F958   1.358   1_455  S
C952        C953   1.405       .  A
C952        F957   1.358       .  S
C953        C954   1.402       .  A
C954        F955   1.358       .  S
C959        C960   1.404       .  A
C959        C964   1.394       .  A
C959        F966   1.358       .  S
C960        C961   1.404       .  A
C961        C962   1.397       .  A
C961        F968   1.358       .  S
C962        C963   1.407       .  A
C962        F967   1.358       .  S
C963        C964   1.408       .  A
C964        F965   1.358       .  S
C969        C970   1.407       .  A
C969        C974   1.396       .  A
C969        F976   1.358       .  S
C970        C971   1.410       .  A
C971        C972   1.404       .  A
C971        F978   1.358       .  S
C972        C973   1.406       .  A
C972        F977   1.358       .  S
C973        C974   1.405       .  A
C974        F975   1.359       .  S
C979        C980   1.404   1_455  A
C979        C984   1.399       .  A
C979        F986   1.358   1_455  S
C980        C981   1.403   1_655  A
C981        C982   1.393       .  A
C981        F988   1.359   1_455  S
C982        C983   1.409       .  A
C982        F987   1.359       .  S
C983        C984   1.409       .  A
C984        F985   1.358       .  S
C989        C990   1.409       .  A
C989        C994   1.408       .  A
C989        F996   1.358       .  S
C990        C991   1.407       .  A
C991        C992   1.395       .  A
C991        F998   1.358       .  S
C992        C993   1.406       .  A
C992        F997   1.358       .  S
C993        C994   1.411       .  A
C994        F995   1.358       .  S
C999       C1000   1.409       .  A
C999       C1004   1.403       .  A
C999       F1006   1.358       .  S
C1000      C1001   1.404       .  A
C1001      C1002   1.395       .  A
C1001      F1008   1.358       .  S
C1002      C1003   1.406       .  A
C1002      F1007   1.358       .  S
C1003      C1004   1.407       .  A
C1004      F1005   1.358       .  S
C1009      C1010   1.407       .  A
C1009      C1014   1.393   1_455  A
C1009      F1016   1.358       .  S
C1010      C1011   1.409       .  A
C1011      C1012   1.396       .  A
C1011      F1018   1.358       .  S
C1012      C1013   1.403   1_455  A
C1012      F1017   1.359   1_455  S
C1013      C1014   1.401       .  A
C1014      F1015   1.358       .  S
C1019      C1020   1.404       .  A
C1019      C1024   1.390   1_565  A
C1019      F1026   1.358       .  S
C1020      C1021   1.408       .  A
C1021      C1022   1.399   1_565  A
C1021      F1028   1.358       .  S
C1022      C1023   1.407       .  A
C1022      F1027   1.358       .  S
C1023      C1024   1.407       .  A
C1024      F1025   1.358       .  S
C1029      C1030   1.407       .  A
C1029      C1034   1.403       .  A
C1029      F1036   1.357       .  S
C1030      C1031   1.406       .  A
C1031      C1032   1.392       .  A
C1031      F1038   1.358       .  S
C1032      C1033   1.407       .  A
C1032      F1037   1.359       .  S
C1033      C1034   1.408       .  A
C1034      F1035   1.357       .  S
C1039      C1040   1.401       .  A
C1039      C1044   1.391       .  A
C1039      F1046   1.358       .  S
C1040      C1041   1.406       .  A
C1041      C1042   1.400       .  A
C1041      F1048   1.358       .  S
C1042      C1043   1.409   1_455  A
C1042      F1047   1.358   1_455  S
C1043      C1044   1.408   1_655  A
C1044      F1045   1.358       .  S
C1049      C1050   1.410       .  A
C1049      C1054   1.408       .  A
C1049      F1056   1.357       .  S
C1050      C1051   1.406       .  A
C1051      C1052   1.396       .  A
C1051      F1058   1.358       .  S
C1052      C1053   1.410       .  A
C1052      F1057   1.359       .  S
C1053      C1054   1.408       .  A
C1054      F1055   1.357       .  S
C1059      C1060   1.407       .  A
C1059      C1064   1.395   1_565  A
C1059      F1066   1.358       .  S
C1060      C1061   1.409       .  A
C1061      C1062   1.400   1_565  A
C1061      F1068   1.358       .  S
C1062      C1063   1.405       .  A
C1062      F1067   1.358       .  S
C1063      C1064   1.405       .  A
C1064      F1065   1.358       .  S
C1069      C1070   1.408       .  A
C1069      C1074   1.406       .  A
C1069      F1076   1.358       .  S
C1070      C1071   1.406       .  A
C1071      C1072   1.394       .  A
C1071      F1078   1.358       .  S
C1072      C1073   1.404       .  A
C1072      F1077   1.358       .  S
C1073      C1074   1.411       .  A
C1074      F1075   1.358       .  S
C1079      C1080   1.406       .  A
C1079      C1084   1.391       .  A
C1079      F1086   1.358       .  S
C1080      C1081   1.408       .  A
C1081      C1082   1.401       .  A
C1081      F1088   1.358       .  S
C1082      C1083   1.407       .  A
C1082      F1087   1.358       .  S
C1083      C1084   1.405       .  A
C1084      F1085   1.359       .  S
