geometry optimzed in LAMMPS
_audit_creation_date              2020-11-30 
_audit_creation_method            'lammps2cif' 
_symmetry_space_group_name_H-M    'P1' 
_symmetry_Int_Tables_number       1 
_symmetry_cell_setting            triclinic 
loop_ 
_symmetry_equiv_pos_as_xyz 
  x,y,z 
_cell_length_a                    30.68525749 
_cell_length_b                    33.01519539373513 
_cell_length_c                    28.077088564616332 
_cell_angle_alpha                 88.37313522234439 
_cell_angle_beta                  92.0671332121156 
_cell_angle_gamma                 90.67437792382111 
loop_ 
_atom_site_label 
_atom_site_type_symbol 
_atom_site_fract_x 
_atom_site_fract_y 
_atom_site_fract_z 
_atom_site_charge 
C1          C  0.32338050  0.19835097  0.49640056     0.86200
C2          C  0.32853961  0.17414495  0.45058199    -0.54000
C3          C  0.36648351  0.15298513  0.44980248     0.09200
C4          C  0.39619836  0.15808355  0.49432315     0.20100
C5          C  0.33036186  0.16751608  0.53822215    -0.54700
C6          C  0.36807638  0.14629021  0.53668646     0.09300
C7          C  0.36520869  0.22494364  0.50015076    -0.54300
C8          C  0.40302438  0.20395911  0.49786859     0.09800
H9          H  0.30429238  0.17384530  0.42145942     0.14400
H10         H  0.42698383  0.14075247  0.49358175     0.00100
H11         H  0.30818686  0.16386160  0.56737174     0.14700
H12         H  0.36647542  0.25705711  0.50651623     0.14500
C13         C  0.15423111  0.28389576  0.50861842     0.86200
C14         C  0.14494380  0.31329035  0.46580258    -0.54000
C15         C  0.10740724  0.33448980  0.46874216     0.09200
C16         C  0.08182224  0.32417252  0.51315706     0.20100
C17         C  0.15135079  0.30948836  0.55369100    -0.54700
C18         C  0.11349954  0.33073194  0.55570494     0.08100
C19         C  0.11225839  0.25706778  0.50936507    -0.54300
C20         C  0.07472125  0.27832270  0.51270170     0.09800
H21         H  0.16574942  0.31637732  0.43541044     0.14400
H22         H  0.05114757  0.34159733  0.51458693     0.00100
H23         H  0.17614378  0.30892607  0.58223105     0.14700
H24         H  0.11041865  0.22464037  0.50559121     0.14500
C25         C  0.16504428  0.18833732  0.00705427     0.86200
C26         C  0.15920288  0.16128614  0.05207184    -0.54000
C27         C  0.12158368  0.13903705  0.05145008     0.09200
C28         C  0.09229940  0.14626625  0.00678090     0.20100
C29         C  0.15840627  0.16037314  0.96420294    -0.54700
C30         C  0.12068513  0.13810430  0.96443814     0.09300
C31         C  0.12305811  0.21427777  0.00491745    -0.54300
C32         C  0.08524521  0.19205845  0.00375449     0.09800
H33         H  0.18141068  0.16163391  0.08302569     0.14400
H34         H  0.06148089  0.12823224  0.00682807     0.00100
H35         H  0.18005871  0.16078872  0.93446008     0.14700
H36         H  0.12157556  0.24695507  0.00470610     0.14500
C37         C  0.33691278  0.27437188  0.00073123     0.86200
C38         C  0.34572591  0.30229206  0.04336731    -0.54000
C39         C  0.38416679  0.32338921  0.04196249     0.09200
C40         C  0.41122209  0.31421563  0.99896597     0.20100
C41         C  0.34231037  0.30159631  0.95578216    -0.54700
C42         C  0.38084705  0.32264171  0.95529954     0.09300
C43         C  0.37780334  0.24727746  0.00052189    -0.54300
C44         C  0.41640189  0.26802189  0.00114462     0.09800
H45         H  0.32382706  0.30464801  0.07264999     0.14400
H46         H  0.44256193  0.33138976  0.99809791     0.00100
H47         H  0.31834020  0.30350350  0.92646254     0.14700
H48         H  0.37808514  0.21472891  0.99807582     0.14500
O49         O  0.43450384  0.47071008  0.80523877    -0.58100
C50         C  0.44830203  0.04191392  0.68180153     0.74600
O51         O  0.05947037  0.01174807  0.79824104    -0.59200
C52         C  0.44750307  0.43509908  0.81469908     0.74500
C53         C  0.03813749  0.43562079  0.69017736     0.76900
Cd54       Cd  0.49339022  0.48886217  0.75017202     1.37500
O55         O  0.42918033  0.01183686  0.70109005    -0.58100
O56         O  0.49681551  0.43962663  0.68872394    -0.56900
C57         C  0.04000430  0.04082795  0.81658234     0.76900
O58         O  0.05982404  0.45848018  0.71807437    -0.59200
O59         O  0.48820826  0.04675566  0.69329848    -0.57700
O60         O  0.48082056  0.42418404  0.79353090    -0.57700
O61         O  0.49958635  0.04382710  0.80513206    -0.56900
O62         O  0.42412943  0.47017962  0.19499624    -0.58100
C63         C  0.43259933  0.04363194  0.31322385     0.74600
O64         O  0.04235224  0.47236113  0.31115105    -0.59200
C65         C  0.44394609  0.43878305  0.18305969     0.74500
C66         C  0.03441930  0.04324090  0.19382022     0.76900
Cd67       Cd  0.48234125  0.49183443  0.25409590     1.37500
O68         O  0.41379543  0.01435605  0.29230008    -0.58100
O69         O  0.49561444  0.05025730  0.20052136    -0.56900
C70         C  0.02438111  0.43987786  0.32591786     0.76900
O71         O  0.05031053  0.01236282  0.21545022    -0.59200
O72         O  0.97240238  0.04818324  0.30647266    -0.57700
O73         O  0.98041509  0.43311987  0.20417659    -0.57700
O74         O  0.48688105  0.43271000  0.30861413    -0.56900
C75         C  0.37703146  0.38935376  0.08155175    -0.20600
C76         C  0.39876044  0.35241354  0.07876645    -0.07100
C77         C  0.43457062  0.34407011  0.11020539     0.13800
C78         C  0.44784642  0.37276153  0.14367697    -0.20600
C79         C  0.42653565  0.41004901  0.14675296    -0.07100
C80         C  0.39054445  0.41846939  0.11491780     0.13700
C81         C  0.36669981  0.45809068  0.11491290    -0.24000
H82         H  0.34975656  0.39563481  0.05694674     0.15000
H83         H  0.47528620  0.36576603  0.16778956     0.15100
C84         C  0.45836229  0.30452502  0.10947221    -0.23900
H85         H  0.34034409  0.45965032  0.08675825     0.05300
H86         H  0.38977398  0.48358743  0.10811338     0.08500
H87         H  0.35140321  0.46170827  0.14973417     0.08500
H88         H  0.47430690  0.30176650  0.07497980     0.08500
H89         H  0.43495291  0.27915192  0.11491664     0.08500
H90         H  0.48420283  0.30215963  0.13811354     0.05300
C91         C  0.42275489  0.36607703  0.83902144    -0.20600
C92         C  0.42576081  0.40750440  0.84903648    -0.07100
C93         C  0.41077354  0.42108258  0.89286059     0.13800
C94         C  0.39525183  0.39261033  0.92641679    -0.20600
C95         C  0.39294297  0.35129377  0.91656964    -0.07100
C96         C  0.40570698  0.33786904  0.87197334     0.13700
C97         C  0.40222957  0.29381946  0.85953369    -0.24000
H98         H  0.43393668  0.35574444  0.80529538     0.15000
H99         H  0.38536170  0.40251167  0.96087188     0.15100
C100        C  0.91227720  0.46567894  0.90566957    -0.23900
H101        H  0.41465105  0.28845331  0.82360950     0.05300
H102        H  0.36757885  0.28381895  0.85963745     0.08500
H103        H  0.42138495  0.27501685  0.88589247     0.08500
H104        H  0.39156157  0.48308083  0.88004085     0.08500
H105        H  0.94631687  0.47732818  0.90432645     0.08500
H106        H  0.90058825  0.47049283  0.94204541     0.05300
C107        C  0.09289371  0.05144866  0.13515368    -0.20600
C108        C  0.06054063  0.06937600  0.16160744    -0.07100
C109        C  0.05311393  0.11152988  0.15564057     0.13800
C110        C  0.07681391  0.13400868  0.12211365    -0.20600
C111        C  0.10620145  0.11536518  0.09302805    -0.07100
C112        C  0.11557580  0.07390320  0.10055675     0.13700
C113        C  0.14861379  0.05246665  0.07223278    -0.24000
H114        H  0.09931791  0.01934778  0.14006816     0.15000
H115        H  0.07119993  0.16622645  0.11722099     0.15100
C116        C  0.02033206  0.13322730  0.18416586    -0.23900
H117        H  0.17370807  0.03865796  0.09692011     0.05300
H118        H  0.16565788  0.07319767  0.04719101     0.08500
H119        H  0.13219940  0.02816875  0.05147874     0.08500
H120        H  0.02757157  0.12798201  0.22286217     0.08500
H121        H  0.98687156  0.12229335  0.17481981     0.08500
H122        H  0.02103734  0.16645709  0.17672212     0.05300
C123        C  0.06228999  0.12544859  0.90428583    -0.20600
C124        C  0.10345291  0.11483820  0.92339919    -0.07100
C125        C  0.12511206  0.08140545  0.90532233     0.13800
C126        C  0.10391661  0.05823015  0.86994945    -0.20600
C127        C  0.06179448  0.06795347  0.85184807    -0.07100
C128        C  0.04118180  0.10283713  0.86873957     0.13700
C129        C  0.49740266  0.11777974  0.84822372    -0.24000
H130        H  0.04621095  0.15162486  0.91777124     0.15000
H131        H  0.12014137  0.03197430  0.85698510     0.15100
C132        C  0.16979679  0.06926170  0.92411379    -0.23900
H133        H  0.48818169  0.14692685  0.86371580     0.05300
H134        H  0.47165929  0.09527694  0.85733503     0.08500
H135        H  0.49819031  0.12270985  0.80896894     0.08500
H136        H  0.16942480  0.06376145  0.96322292     0.08500
H137        H  0.19383884  0.09352521  0.91579252     0.08500
H138        H  0.18086604  0.04112636  0.90772274     0.05300
C139        C  0.48956280  0.26016750  0.96856590    -0.20600
C140        C  0.45917438  0.24750789  0.00216101    -0.07100
C141        C  0.46985997  0.21505967  0.03461269     0.13800
C142        C  0.01040004  0.19689527  0.03268495    -0.20600
C143        C  0.04132790  0.21038620  0.00023628    -0.07100
C144        C  0.52992857  0.24109183  0.96593998     0.13700
C145        C  0.55807889  0.25313744  0.92483408    -0.24000
H146        H  0.48119912  0.28430497  0.94297621     0.15000
H147        H  0.01828156  0.17231107  0.05761778     0.15100
C148        C  0.94056147  0.20020390  0.07384792    -0.23900
H149        H  0.56926487  0.28503233  0.92845460     0.05300
H150        H  0.53868103  0.25053650  0.89086283     0.08500
H151        H  0.08683887  0.23358691  0.92229297     0.08500
H152        H  0.43054990  0.16812610  0.06690141     0.08500
H153        H  0.41129488  0.21823920  0.07753463     0.08500
H154        H  0.95884691  0.20078156  0.10870032     0.05300
C155        C  0.28924326  0.21013912  0.00861531    -0.20600
C156        C  0.29203698  0.25269975  0.00285670    -0.07100
C157        C  0.25218910  0.27446385  0.00080018     0.13800
C158        C  0.21226568  0.25319870  0.00221942    -0.20600
C159        C  0.20956410  0.21056678  0.00669076    -0.07100
C160        C  0.24942504  0.18889397  0.00987647     0.13700
C161        C  0.25147950  0.14303179  0.01464537    -0.24000
H162        H  0.31800047  0.19221826  0.01342345     0.15000
H163        H  0.18326561  0.27111133  0.99932024     0.15100
C164        C  0.25034854  0.32035669  0.99780705    -0.23900
H165        H  0.28551215  0.13192777  0.01491357     0.05300
H166        H  0.23425287  0.12854888  0.98424054     0.08500
H167        H  0.23785435  0.13187594  0.04854966     0.08500
H168        H  0.26435283  0.33250170  0.96456674     0.08500
H169        H  0.26737033  0.33386272  0.02900967     0.08500
H170        H  0.21631864  0.33147579  0.99763748     0.05300
C171        C  0.05709352  0.34562680  0.61223823    -0.20600
C172        C  0.09939379  0.35369471  0.59703915    -0.07100
C173        C  0.12333525  0.38653239  0.61640743     0.13800
C174        C  0.10301929  0.41196613  0.64815682    -0.20600
C175        C  0.05923157  0.40580463  0.66009801    -0.07100
C176        C  0.03635904  0.37137050  0.64269622     0.13700
C177        C  0.98998076  0.36125919  0.65533907    -0.24000
H178        H  0.03922807  0.31975955  0.59825861     0.15000
H179        H  0.12091819  0.43776150  0.66219895     0.15100
C180        C  0.16934018  0.39601151  0.60237387    -0.23900
H181        H  0.97872233  0.33189840  0.64061432     0.05300
H182        H  0.96757575  0.38481817  0.64018320     0.08500
H183        H  0.98745401  0.35892223  0.69467251     0.08500
H184        H  0.17074957  0.39990906  0.56310332     0.08500
H185        H  0.19122460  0.37111754  0.61482889     0.08500
H186        H  0.18194123  0.42432372  0.61859860     0.05300
C187        C  0.07558445  0.42857123  0.39562413    -0.20600
C188        C  0.04656758  0.41208800  0.36121252    -0.07100
C189        C  0.03986183  0.36950019  0.36094940     0.13800
C190        C  0.06209273  0.34483345  0.39508758    -0.20600
C191        C  0.08964148  0.36157691  0.43027026    -0.07100
C192        C  0.09654892  0.40379589  0.43071346     0.13700
C193        C  0.12541820  0.42258473  0.46871652    -0.24000
H194        H  0.08086530  0.46108575  0.39596544     0.15000
H195        H  0.05723006  0.31226407  0.39504840     0.15100
C196        C  0.51058908  0.34961915  0.32364353    -0.23900
H197        H  0.12805274  0.45598417  0.46352409     0.05300
H198        H  0.15868173  0.40977702  0.46798177     0.08500
H199        H  0.11166925  0.41607773  0.50418477     0.08500
H200        H  0.52117030  0.35812620  0.28726274     0.08500
H201        H  0.47640497  0.35910688  0.32784433     0.08500
H202        H  0.51114495  0.31604679  0.32746965     0.05300
C203        C  0.39636048  0.05285260  0.61286111    -0.20600
C204        C  0.42539741  0.06952871  0.64707146    -0.07100
C205        C  0.43221175  0.11203220  0.64708173     0.13800
C206        C  0.41100278  0.13645920  0.61196235    -0.20600
C207        C  0.38429095  0.11945625  0.57619862    -0.07100
C208        C  0.37616138  0.07737605  0.57696326     0.13700
C209        C  0.34688638  0.05841309  0.53945240    -0.24000
H210        H  0.39073320  0.02039142  0.61316556     0.15000
H211        H  0.41602115  0.16901383  0.61171743     0.15100
C212        C  0.96159074  0.13202567  0.68478212    -0.23900
H213        H  0.34355724  0.02514663  0.54550092     0.05300
H214        H  0.36070459  0.06399667  0.50387996     0.08500
H215        H  0.31390674  0.07187147  0.53984047     0.08500
H216        H  0.99580443  0.12234833  0.68139185     0.08500
H217        H  0.95038460  0.12361496  0.72094238     0.08500
H218        H  0.96116263  0.16559894  0.68078802     0.05300
C219        C  0.35727185  0.09041598  0.40239249    -0.20600
C220        C  0.37891951  0.12754421  0.40975576    -0.07100
C221        C  0.41470292  0.13822556  0.38164572     0.13800
C222        C  0.42949161  0.11080928  0.34894968    -0.20600
C223        C  0.41009770  0.07240729  0.34372239    -0.07100
C224        C  0.37261422  0.06243654  0.36995741     0.13700
C225        C  0.34995810  0.02193179  0.36581160    -0.24000
H226        H  0.32944107  0.08256544  0.42364761     0.15000
H227        H  0.45747677  0.11913330  0.32814097     0.15100
C228        C  0.43772196  0.17848186  0.38588369    -0.23900
H229        H  0.32214584  0.01895465  0.38998128     0.05300
H230        H  0.37320815  0.49728424  0.37542327     0.08500
H231        H  0.33697037  0.01822965  0.32876961     0.08500
H232        H  0.45434153  0.18031610  0.42135681     0.08500
H233        H  0.41375788  0.20319150  0.38045568     0.08500
H234        H  0.46303159  0.18289704  0.35885865     0.05300
C235        C  0.49911472  0.27584801  0.47952092    -0.20600
C236        C  0.03066716  0.25946979  0.51188083    -0.07100
C237        C  0.01961050  0.22505021  0.54034460     0.13800
C238        C  0.47809885  0.20669005  0.53317809    -0.20600
C239        C  0.44671442  0.22349903  0.50107664    -0.07100
C240        C  0.45768409  0.25841020  0.47333528     0.13700
C241        C  0.42806155  0.27723024  0.43493845    -0.24000
H242        H  0.50730619  0.30226844  0.45786640     0.15000
H243        H  0.46999029  0.17999766  0.55446329     0.15100
C244        C  0.04925951  0.20755492  0.57952092    -0.23900
H245        H  0.44535823  0.27911948  0.40084925     0.05300
H246        H  0.41944652  0.30833460  0.44499685     0.08500
H247        H  0.39768075  0.25983080  0.42781174     0.08500
H248        H  0.07897295  0.22611883  0.58634061     0.08500
H249        H  0.05890152  0.17647718  0.57043226     0.08500
H250        H  0.03163072  0.20590804  0.61341103     0.05300
C251        C  0.27729473  0.26306717  0.49575286    -0.20600
C252        C  0.27931843  0.22030794  0.49745711    -0.07100
C253        C  0.23928227  0.19857343  0.50093476     0.13800
C254        C  0.20040811  0.21957209  0.50643552    -0.20600
C255        C  0.19834464  0.26227014  0.50562007    -0.07100
C256        C  0.23825996  0.28414193  0.50066112     0.13700
C257        C  0.24223141  0.32991383  0.50028641    -0.24000
H258        H  0.30590632  0.28134637  0.48982584     0.15000
H259        H  0.17184440  0.20107127  0.51139442     0.15100
C260        C  0.23496204  0.15294137  0.49875803    -0.23900
H261        H  0.26603816  0.33908836  0.52881522     0.05300
H262        H  0.21174535  0.34595924  0.50646611     0.08500
H263        H  0.25436334  0.34088716  0.46537698     0.08500
H264        H  0.22268606  0.14064292  0.53302359     0.08500
H265        H  0.26529532  0.13701777  0.49158492     0.08500
H266        H  0.21112239  0.14511986  0.46965781     0.05300
C267        C  0.32340182  0.69837530  0.49636388     0.86200
C268        C  0.32855239  0.67416662  0.45054643    -0.54000
C269        C  0.36649280  0.65300225  0.44976455     0.09200
C270        C  0.39621404  0.65810076  0.49428023     0.20100
C271        C  0.33038346  0.66754251  0.53818596    -0.54700
C272        C  0.36809441  0.64631314  0.53664646     0.09300
C273        C  0.36523310  0.72496466  0.50010562    -0.54300
C274        C  0.40304581  0.70397618  0.49782121     0.09800
H275        H  0.30430126  0.67386633  0.42142790     0.14400
H276        H  0.42699690  0.64076594  0.49353759     0.00100
H277        H  0.30820978  0.66388954  0.56733700     0.14700
H278        H  0.36650518  0.75707840  0.50646757     0.14500
C279        C  0.15426567  0.78392453  0.50862108     0.86200
C280        C  0.14498184  0.81332143  0.46580876    -0.54000
C281        C  0.10745044  0.83452651  0.46875095     0.09200
C282        C  0.08186431  0.82421121  0.51316724     0.20100
C283        C  0.15139242  0.80951448  0.55369635    -0.54700
C284        C  0.11354572  0.83076413  0.55571435     0.08100
C285        C  0.11228970  0.75710225  0.50936843    -0.54300
C286        C  0.07475596  0.77836117  0.51271077     0.09800
H287        H  0.16578555  0.81640473  0.43541473     0.14400
H288        H  0.05119294  0.84164050  0.51460061     0.00100
H289        H  0.17618628  0.80894578  0.58223581     0.14700
H290        H  0.11044561  0.72467503  0.50559436     0.14500
C291        C  0.16500565  0.68833116  0.00707310     0.86200
C292        C  0.15916997  0.66128029  0.05209310    -0.54000
C293        C  0.12154703  0.63903612  0.05148234     0.09200
C294        C  0.09225408  0.64626831  0.00682018     0.20100
C295        C  0.15835259  0.66036595  0.96422336    -0.54700
C296        C  0.12062713  0.63810237  0.96447002     0.09300
C297        C  0.12302177  0.71427621  0.00494452    -0.54300
C298        C  0.08520623  0.69205995  0.00379249     0.09800
H299        H  0.18138642  0.66162379  0.08304005     0.14400
H300        H  0.06143304  0.62823835  0.00687503     0.00100
H301        H  0.17999898  0.66077411  0.93447499     0.14700
H302        H  0.12154243  0.74695387  0.00471962     0.14500
C303        C  0.33688843  0.77436296  0.00076541     0.86200
C304        C  0.34570684  0.80230040  0.04338789    -0.54000
C305        C  0.38414968  0.82339692  0.04197044     0.09200
C306        C  0.41119849  0.81420587  0.99897385     0.20100
C307        C  0.34228473  0.80157258  0.95580183    -0.54700
C308        C  0.38082176  0.82261762  0.95530582     0.09300
C309        C  0.37777911  0.74726783  0.00057234    -0.54300
C310        C  0.41637626  0.76801295  0.00117673     0.09800
H311        H  0.32381392  0.80466317  0.07267467     0.14400
H312        H  0.44253893  0.83137810  0.99809166     0.00100
H313        H  0.31830905  0.80347554  0.92648735     0.14700
H314        H  0.37806520  0.71471664  0.99816278     0.14500
O315        O  0.43462966  0.97075800  0.80539573    -0.58100
C316        C  0.44827312  0.54192715  0.68177739     0.74600
O317        O  0.05944899  0.51177464  0.79821527    -0.59200
C318        C  0.44752022  0.93509326  0.81472918     0.74500
C319        C  0.03820143  0.93563627  0.69020707     0.76900
Cd320      Cd  0.49344075  0.98885412  0.75019581     1.37500
O321        O  0.42916601  0.51180550  0.70098742    -0.58100
O322        O  0.49689274  0.93968581  0.68867972    -0.56900
C323        C  0.03994962  0.54079871  0.81663129     0.76900
O324        O  0.05987239  0.95842642  0.71819714    -0.59200
O325        O  0.48815493  0.54681196  0.69335871    -0.57700
O326        O  0.48074364  0.92412561  0.79343210    -0.57700
O327        O  0.49946793  0.54374555  0.80524566    -0.56900
O328        O  0.42415635  0.97021569  0.19498040    -0.58100
C329        C  0.43256861  0.54360996  0.31322207     0.74600
O330        O  0.04243598  0.97237730  0.31109910    -0.59200
C331        C  0.44396716  0.93881741  0.18303888     0.74500
C332        C  0.03435222  0.54322685  0.19381961     0.76900
Cd333      Cd  0.48237973  0.99185936  0.25409111     1.37500
O334        O  0.41373090  0.51440812  0.29218915    -0.58100
O335        O  0.49556968  0.55022520  0.20050406    -0.56900
C336        C  0.02445766  0.93990810  0.32589838     0.76900
O337        O  0.05025811  0.51237325  0.21548677    -0.59200
O338        O  0.97240393  0.54811257  0.30658948    -0.57700
O339        O  0.98043885  0.93311285  0.20415809    -0.57700
O340        O  0.48694460  0.93275580  0.30862585    -0.56900
C341        C  0.37699889  0.88935333  0.08158580    -0.20600
C342        C  0.39875626  0.85243031  0.07876507    -0.07100
C343        C  0.43460580  0.84411398  0.11016127     0.13800
C344        C  0.44788861  0.87281103  0.14362369    -0.20600
C345        C  0.42654917  0.91008023  0.14673520    -0.07100
C346        C  0.39051967  0.91847521  0.11494344     0.13700
C347        C  0.36663845  0.95807517  0.11497850    -0.24000
H348        H  0.34969438  0.89561656  0.05701501     0.15000
H349        H  0.47535729  0.86583316  0.16770258     0.15100
C350        C  0.45843114  0.80458875  0.10940174    -0.23900
H351        H  0.34025146  0.95961675  0.08685808     0.05300
H352        H  0.38968039  0.98359224  0.10815290     0.08500
H353        H  0.35137771  0.96167404  0.14982304     0.08500
H354        H  0.47435263  0.80184476  0.07489424     0.08500
H355        H  0.43504784  0.77919955  0.11486973     0.08500
H356        H  0.48429555  0.80224037  0.13801896     0.05300
C357        C  0.42275170  0.86606662  0.83903978    -0.20600
C358        C  0.42576274  0.90749459  0.84906207    -0.07100
C359        C  0.41075258  0.92106565  0.89288204     0.13800
C360        C  0.39521810  0.89258825  0.92642610    -0.20600
C361        C  0.39291251  0.85127306  0.91657400    -0.07100
C362        C  0.40568767  0.83785496  0.87197958     0.13700
C363        C  0.40220198  0.79380852  0.85952773    -0.24000
H364        H  0.43394111  0.85573520  0.80531728     0.15000
H365        H  0.38531609  0.90248481  0.96087871     0.15100
C366        C  0.91218643  0.96568196  0.90565071    -0.23900
H367        H  0.41462924  0.78844625  0.82360528     0.05300
H368        H  0.36754823  0.78381606  0.85962111     0.08500
H369        H  0.42134646  0.77499642  0.88588633     0.08500
H370        H  0.39152922  0.98306139  0.88006857     0.08500
H371        H  0.94622204  0.97734607  0.90433909     0.08500
H372        H  0.90046709  0.97049099  0.94201492     0.05300
C373        C  0.09286732  0.55145196  0.13519758    -0.20600
C374        C  0.06047314  0.56936504  0.16160815    -0.07100
C375        C  0.05302195  0.61151307  0.15561976     0.13800
C376        C  0.07674037  0.63399946  0.12211582    -0.20600
C377        C  0.10616535  0.61536770  0.09306466    -0.07100
C378        C  0.11556925  0.57391471  0.10062188     0.13700
C379        C  0.14866697  0.55249850  0.07235745    -0.24000
H380        H  0.09931468  0.51935732  0.14013368     0.15000
H381        H  0.07111679  0.66621429  0.11721690     0.15100
C382        C  0.02019640  0.63319775  0.18410016    -0.23900
H383        H  0.17374766  0.53872091  0.09708685     0.05300
H384        H  0.16572066  0.57323653  0.04733079     0.08500
H385        H  0.13230431  0.52817894  0.05159369     0.08500
H386        H  0.02740525  0.62796731  0.22280456     0.08500
H387        H  0.98675135  0.62224013  0.17472325     0.08500
H388        H  0.02088272  0.66642602  0.17664397     0.05300
C389        C  0.06222445  0.62543099  0.90432508    -0.20600
C390        C  0.10338665  0.61482348  0.92344469    -0.07100
C391        C  0.12503688  0.58137460  0.90539555     0.13800
C392        C  0.10384520  0.55819377  0.87002541    -0.20600
C393        C  0.06172890  0.56791976  0.85190941    -0.07100
C394        C  0.04111451  0.60280680  0.86878996     0.13700
C395        C  0.49723269  0.61768314  0.84838782    -0.24000
H396        H  0.04614748  0.65161389  0.91779746     0.15000
H397        H  0.12006677  0.53192979  0.85707711     0.15100
C398        C  0.16970666  0.56921831  0.92422053    -0.23900
H399        H  0.48799012  0.64681230  0.86390794     0.05300
H400        H  0.47153242  0.59514500  0.85752648     0.08500
H401        H  0.49796663  0.62262723  0.80913177     0.08500
H402        H  0.16931117  0.56373525  0.96333179     0.08500
H403        H  0.19376444  0.59346839  0.91590084     0.08500
H404        H  0.18077008  0.54107012  0.90785384     0.05300
C405        C  0.48952069  0.76012909  0.96857740    -0.20600
C406        C  0.45914696  0.74750000  0.00220210    -0.07100
C407        C  0.46984635  0.71508476  0.03469466     0.13800
C408        C  0.01036059  0.69691030  0.03271687    -0.20600
C409        C  0.04129000  0.71038787  0.00026326    -0.07100
C410        C  0.52988605  0.74105317  0.96596113     0.13700
C411        C  0.55802287  0.75305984  0.92482996    -0.24000
H412        H  0.48114625  0.78424303  0.94296019     0.15000
H413        H  0.01823781  0.67233444  0.05766007     0.15100
C414        C  0.94052124  0.70023479  0.07387370    -0.23900
H415        H  0.56919853  0.78496275  0.92839728     0.05300
H416        H  0.53861814  0.75041497  0.89086914     0.08500
H417        H  0.08680278  0.73354410  0.92230593     0.08500
H418        H  0.43057136  0.66816943  0.06707071     0.08500
H419        H  0.41128106  0.71828525  0.07761426     0.08500
H420        H  0.95880196  0.70084322  0.10872734     0.05300
C421        C  0.28921072  0.71012622  0.00862548    -0.20600
C422        C  0.29200993  0.75268955  0.00289427    -0.07100
C423        C  0.25216240  0.77445449  0.00084265     0.13800
C424        C  0.21223653  0.75319068  0.00225113    -0.20600
C425        C  0.20952970  0.71055776  0.00670337    -0.07100
C426        C  0.24938970  0.68888257  0.00987655     0.13700
C427        C  0.25143954  0.64301881  0.01461746    -0.24000
H428        H  0.31796533  0.69219937  0.01340852     0.15000
H429        H  0.18323773  0.77110603  0.99936309     0.15100
C430        C  0.25032513  0.82034753  0.99786279    -0.23900
H431        H  0.28547170  0.63191276  0.01489337     0.05300
H432        H  0.23422309  0.62855231  0.98419532     0.08500
H433        H  0.23780032  0.63184722  0.04850796     0.08500
H434        H  0.26434845  0.83249964  0.96463588     0.08500
H435        H  0.26733100  0.83384524  0.02908011     0.08500
H436        H  0.21629512  0.83146804  0.99767578     0.05300
C437        C  0.05715021  0.84565135  0.61226328    -0.20600
C438        C  0.09944737  0.85372172  0.59705595    -0.07100
C439        C  0.12339505  0.88655407  0.61642992     0.13800
C440        C  0.10308833  0.91197939  0.64819673    -0.20600
C441        C  0.05930119  0.90581892  0.66013817    -0.07100
C442        C  0.03642388  0.87139012  0.64273308     0.13700
C443        C  0.99004851  0.86128065  0.65538917    -0.24000
H444        H  0.03927992  0.81978839  0.59827997     0.15000
H445        H  0.12098858  0.93777213  0.66224313     0.15100
C446        C  0.16939332  0.89604066  0.60237803    -0.23900
H447        H  0.97878918  0.83191620  0.64067528     0.05300
H448        H  0.96763945  0.88483531  0.64023144     0.08500
H449        H  0.98752893  0.85895368  0.69472397     0.08500
H450        H  0.17078671  0.89995036  0.56310747     0.08500
H451        H  0.19128422  0.87114483  0.61481107     0.08500
H452        H  0.18199871  0.92434865  0.61860899     0.05300
C453        C  0.07569265  0.92859902  0.39557934    -0.20600
C454        C  0.04664785  0.91211987  0.36119198    -0.07100
C455        C  0.03991045  0.86953517  0.36095541     0.13800
C456        C  0.06212349  0.84486942  0.39510753    -0.20600
C457        C  0.08969159  0.86161081  0.43027320    -0.07100
C458        C  0.09664633  0.90382461  0.43067801     0.13700
C459        C  0.12555398  0.92260898  0.46865046    -0.24000
H460        H  0.08100320  0.96111045  0.39589560     0.15000
H461        H  0.05723591  0.81230259  0.39508898     0.15100
C462        C  0.51064160  0.84966535  0.32362989    -0.23900
H463        H  0.12822601  0.95600333  0.46342781     0.05300
H464        H  0.15880122  0.90976603  0.46791079     0.08500
H465        H  0.11181285  0.91613859  0.50413022     0.08500
H466        H  0.52122782  0.85816719  0.28724954     0.08500
H467        H  0.47645997  0.85916151  0.32782725     0.08500
H468        H  0.51118657  0.81609287  0.32745829     0.05300
C469        C  0.39636376  0.55286880  0.61280937    -0.20600
C470        C  0.42538118  0.56954402  0.64704038    -0.07100
C471        C  0.43218974  0.61204835  0.64706233     0.13800
C472        C  0.41099617  0.63647681  0.61193439    -0.20600
C473        C  0.38430308  0.61947513  0.57615466    -0.07100
C474        C  0.37617876  0.57739477  0.57690547     0.13700
C475        C  0.34692496  0.55843474  0.53937332    -0.24000
H476        H  0.39074105  0.52040733  0.61310281     0.15000
H477        H  0.41601279  0.66903152  0.61169510     0.15100
C478        C  0.96158459  0.63203611  0.68482294    -0.23900
H479        H  0.34359157  0.52516815  0.54541667     0.05300
H480        H  0.36076579  0.56402003  0.50381255     0.08500
H481        H  0.31394442  0.57189397  0.53973816     0.08500
H482        H  0.99579920  0.62236198  0.68143131     0.08500
H483        H  0.95037669  0.62361820  0.72098048     0.08500
H484        H  0.96115561  0.66560989  0.68083841     0.05300
C485        C  0.35725462  0.59042977  0.40236614    -0.20600
C486        C  0.37891668  0.62755264  0.40972234    -0.07100
C487        C  0.41470459  0.63821884  0.38161220     0.13800
C488        C  0.42948244  0.61079332  0.34892145    -0.20600
C489        C  0.41007289  0.57239826  0.34370234    -0.07100
C490        C  0.37258826  0.56244058  0.36993808     0.13700
C491        C  0.34993075  0.52193541  0.36580652    -0.24000
H492        H  0.32942205  0.58258994  0.42362331     0.15000
H493        H  0.45747153  0.61910181  0.32811146     0.15100
C494        C  0.43774056  0.67846757  0.38584559    -0.23900
H495        H  0.32212673  0.51896127  0.38998774     0.05300
H496        H  0.37323231  0.99727963  0.37543459     0.08500
H497        H  0.33693289  0.51822872  0.32876932     0.08500
H498        H  0.45435636  0.68030251  0.42132076     0.08500
H499        H  0.41378796  0.70318582  0.38040797     0.08500
H500        H  0.46305592  0.68286803  0.35882452     0.05300
C501        C  0.49913666  0.77586859  0.47949137    -0.20600
C502        C  0.03070019  0.75951002  0.51190099    -0.07100
C503        C  0.01965127  0.72508274  0.54035721     0.13800
C504        C  0.47811632  0.70670587  0.53313942    -0.20600
C505        C  0.44673723  0.72351321  0.50103094    -0.07100
C506        C  0.45770990  0.75842477  0.47329185     0.13700
C507        C  0.42809409  0.77723799  0.43488412    -0.24000
H508        H  0.50732971  0.80229151  0.45784150     0.15000
H509        H  0.47000378  0.68001418  0.55442429     0.15100
C510        C  0.04931402  0.70757097  0.57951089    -0.23900
H511        H  0.44539841  0.77912326  0.40079956     0.05300
H512        H  0.41947385  0.80834329  0.44493376     0.08500
H513        H  0.39771592  0.75983516  0.42775404     0.08500
H514        H  0.07902672  0.72613472  0.58633428     0.08500
H515        H  0.05895632  0.67649976  0.57039498     0.08500
H516        H  0.03169661  0.70590349  0.61340770     0.05300
C517        C  0.27732235  0.76309184  0.49573672    -0.20600
C518        C  0.27934244  0.72033289  0.49742832    -0.07100
C519        C  0.23930556  0.69859895  0.50090370     0.13800
C520        C  0.20043360  0.71959825  0.50641204    -0.20600
C521        C  0.19837490  0.76229616  0.50561357    -0.07100
C522        C  0.23829063  0.78416711  0.50065570     0.13700
C523        C  0.24226574  0.82993884  0.50028982    -0.24000
H524        H  0.30593413  0.78137099  0.48981236     0.15000
H525        H  0.17186802  0.70109812  0.51136293     0.15100
C526        C  0.23498181  0.65296744  0.49871677    -0.23900
H527        H  0.26607571  0.83910783  0.52881807     0.05300
H528        H  0.21178220  0.84598608  0.50647548     0.08500
H529        H  0.25439544  0.84091616  0.46538096     0.08500
H530        H  0.22269500  0.64066524  0.53297563     0.08500
H531        H  0.26531564  0.63704130  0.49155275     0.08500
H532        H  0.21114915  0.64515220  0.46960736     0.05300
C533        C  0.82351300  0.19868395  0.49703651     0.86200
C534        C  0.82880951  0.17447712  0.45125505    -0.54000
C535        C  0.86677348  0.15334958  0.45058541     0.09200
C536        C  0.89638942  0.15850540  0.49516934     0.20100
C537        C  0.83044233  0.16786811  0.53889354    -0.54700
C538        C  0.86819794  0.14668937  0.53745703     0.09300
C539        C  0.86528950  0.22533824  0.50087147    -0.54300
C540        C  0.90314512  0.20439555  0.49868585     0.09800
H541        H  0.80462323  0.17414109  0.42207492     0.14400
H542        H  0.92718838  0.14118588  0.49454325     0.00100
H543        H  0.80818370  0.16416536  0.56795852     0.14700
H544        H  0.86648482  0.25746452  0.50715990     0.14500
C545        C  0.65404545  0.28375157  0.50844707     0.86200
C546        C  0.64474123  0.31311867  0.46562281    -0.54000
C547        C  0.60714986  0.33423679  0.46850482     0.09200
C548        C  0.58151417  0.32384980  0.51287220     0.20100
C549        C  0.65103342  0.30932848  0.55350758    -0.54700
C550        C  0.61312414  0.33048503  0.55546245     0.08100
C551        C  0.61214695  0.25681675  0.50912501    -0.54300
C552        C  0.57454025  0.27797617  0.51239918     0.09800
H553        H  0.66560541  0.31628369  0.43528693     0.14400
H554        H  0.55079078  0.34120658  0.51425282     0.00100
H555        H  0.67580507  0.30884159  0.58206542     0.14700
H556        H  0.61040176  0.22438825  0.50531845     0.14500
C557        C  0.66509819  0.18833390  0.00633696     0.86200
C558        C  0.65941793  0.16096847  0.05111798    -0.54000
C559        C  0.62184957  0.13865004  0.05041634     0.09200
C560        C  0.59244937  0.14610127  0.00586966     0.20100
C561        C  0.65841927  0.16066997  0.96321600    -0.54700
C562        C  0.62076164  0.13830897  0.96335021     0.09300
C563        C  0.62305994  0.21418593  0.00453041    -0.54300
C564        C  0.58529885  0.19188506  0.00327290     0.09800
H565        H  0.68169021  0.16118578  0.08202494     0.14400
H566        H  0.56166498  0.12801395  0.00582656     0.00100
H567        H  0.67999286  0.16134186  0.93339326     0.14700
H568        H  0.62150878  0.24685569  0.00444157     0.14500
C569        C  0.83689960  0.27460484  0.00089351     0.86200
C570        C  0.84572152  0.30236083  0.04368927    -0.54000
C571        C  0.88414152  0.32351309  0.04234166     0.09200
C572        C  0.91117601  0.31452957  0.99927826     0.20100
C573        C  0.84223680  0.30202306  0.95610263    -0.54700
C574        C  0.88076204  0.32308498  0.95569106     0.09300
C575        C  0.87783503  0.24756782  0.00055628    -0.54300
C576        C  0.91640358  0.26835047  0.00126460     0.09800
H577        H  0.82386854  0.30456254  0.07303441     0.14400
H578        H  0.94249443  0.33173985  0.99844618     0.00100
H579        H  0.81821984  0.30404938  0.92683348     0.14700
H580        H  0.87822019  0.21502793  0.99816246     0.14500
O581        O  0.93521167  0.47138159  0.80627978    -0.58100
C582        C  0.94861431  0.04199436  0.68212016     0.74600
O583        O  0.55961869  0.01306007  0.79590004    -0.59200
C584        C  0.94757409  0.43548300  0.81512121     0.74500
C585        C  0.53772381  0.43546279  0.68983526     0.76900
Cd586      Cd  0.99375313  0.48895012  0.75052931     1.37500
O587        O  0.92938980  0.01212915  0.70174723    -0.58100
O588        O  0.99721590  0.43964606  0.68921052    -0.56900
C589        C  0.53970316  0.04098172  0.81593903     0.76900
O590        O  0.55940969  0.45815676  0.71791572    -0.59200
O591        O  0.98864319  0.04659476  0.69322271    -0.57700
O592        O  0.98031440  0.42417793  0.79323611    -0.57700
O593        O  0.00050042  0.04503644  0.80367163    -0.56900
O594        O  0.92337666  0.46981242  0.19605951    -0.58100
C595        C  0.93216926  0.04386343  0.31361660     0.74600
O596        O  0.54303058  0.47219187  0.31048187    -0.59200
C597        C  0.94366833  0.43889129  0.18347906     0.74500
C598        C  0.53516821  0.04309535  0.19340138     0.76900
Cd599      Cd  0.98177073  0.49189841  0.25460289     1.37500
O600        O  0.91334359  0.01433285  0.29321225    -0.58100
O601        O  0.99465004  0.04995120  0.20031456    -0.56900
C602        C  0.52487120  0.43986682  0.32545489     0.76900
O603        O  0.55078222  0.01181237  0.21441350    -0.59200
O604        O  0.47293791  0.04783058  0.30660955    -0.57700
O605        O  0.48034037  0.43256357  0.20434879    -0.57700
O606        O  0.98649354  0.43255256  0.30888968    -0.56900
C607        C  0.87665616  0.38925471  0.08225715    -0.20600
C608        C  0.89869726  0.35250845  0.07917612    -0.07100
C609        C  0.93483549  0.34440310  0.11024629     0.13800
C610        C  0.94803325  0.37309167  0.14374554    -0.20600
C611        C  0.92637192  0.41016321  0.14714190    -0.07100
C612        C  0.89014595  0.41840078  0.11558070     0.13700
C613        C  0.86608231  0.45789881  0.11575593    -0.24000
H614        H  0.84917831  0.39538409  0.05787450     0.15000
H615        H  0.97569105  0.36627134  0.16762210     0.15100
C616        C  0.95907845  0.30512049  0.10910171    -0.23900
H617        H  0.83963375  0.45937412  0.08770073     0.05300
H618        H  0.88899719  0.48351519  0.10891912     0.08500
H619        H  0.85087258  0.46138990  0.15064501     0.08500
H620        H  0.97488426  0.30269139  0.07448339     0.08500
H621        H  0.93600215  0.27948588  0.11454392     0.08500
H622        H  0.98509364  0.30288634  0.13756494     0.05300
C623        C  0.92285166  0.36650260  0.83955329    -0.20600
C624        C  0.92577487  0.40794979  0.84950097    -0.07100
C625        C  0.91060732  0.42155841  0.89324733     0.13800
C626        C  0.89510558  0.39308229  0.92681870    -0.20600
C627        C  0.89288319  0.35175684  0.91700756    -0.07100
C628        C  0.90573444  0.33831643  0.87246347     0.13700
C629        C  0.90221068  0.29427238  0.86000764    -0.24000
H630        H  0.93411427  0.35613031  0.80587893     0.15000
H631        H  0.88510956  0.40299164  0.96123061     0.15100
C632        C  0.41276972  0.46517044  0.90539991    -0.23900
H633        H  0.91468577  0.28889070  0.82411222     0.05300
H634        H  0.86753871  0.28432874  0.86002881     0.08500
H635        H  0.92128203  0.27543398  0.88640352     0.08500
H636        H  0.89103789  0.48342393  0.88017347     0.08500
H637        H  0.44687309  0.47663517  0.90392320     0.08500
H638        H  0.40126484  0.46997699  0.94185286     0.05300
C639        C  0.59320481  0.05105433  0.13418227    -0.20600
C640        C  0.56129502  0.06915003  0.16109900    -0.07100
C641        C  0.55419243  0.11137620  0.15537283     0.13800
C642        C  0.57762112  0.13373266  0.12150714    -0.20600
C643        C  0.60654157  0.11494244  0.09200645    -0.07100
C644        C  0.61569932  0.07341877  0.09935974     0.13700
C645        C  0.64831249  0.05183058  0.07063096    -0.24000
H646        H  0.59941240  0.01890049  0.13891926     0.15000
H647        H  0.57215618  0.16598696  0.11670218     0.15100
C648        C  0.52206009  0.13328683  0.18452775    -0.23900
H649        H  0.67353188  0.03785976  0.09502869     0.05300
H650        H  0.66525114  0.07250421  0.04544377     0.08500
H651        H  0.63155336  0.02764289  0.05000449     0.08500
H652        H  0.52976646  0.12787093  0.22310543     0.08500
H653        H  0.48837609  0.12269267  0.17566692     0.08500
H654        H  0.52303620  0.16653098  0.17721564     0.05300
C655        C  0.56245076  0.12597724  0.90294904    -0.20600
C656        C  0.60355071  0.11522947  0.92215136    -0.07100
C657        C  0.62518226  0.08180905  0.90400414     0.13800
C658        C  0.60388269  0.05858130  0.86875755    -0.20600
C659        C  0.56172050  0.06828972  0.85080751    -0.07100
C660        C  0.54130971  0.10336901  0.86740456     0.13700
C661        C  0.99699221  0.11696258  0.85008293    -0.24000
H662        H  0.54645402  0.15221864  0.91636787     0.15000
H663        H  0.62000854  0.03224771  0.85585043     0.15100
C664        C  0.66996307  0.06975061  0.92256308    -0.23900
H665        H  0.98734278  0.14566271  0.86632587     0.05300
H666        H  0.97163639  0.09394133  0.85876883     0.08500
H667        H  0.99757689  0.12263799  0.81093424     0.08500
H668        H  0.66977872  0.06422629  0.96167124     0.08500
H669        H  0.69389537  0.09408247  0.91412873     0.08500
H670        H  0.68103471  0.04165626  0.90608073     0.05300
C671        C  0.98963889  0.26048396  0.96887157    -0.20600
C672        C  0.95918933  0.24786343  0.00241524    -0.07100
C673        C  0.96978605  0.21540536  0.03488475     0.13800
C674        C  0.51049219  0.19658090  0.03233331    -0.20600
C675        C  0.54135021  0.21012834  0.99983281    -0.07100
C676        C  0.02997286  0.24133533  0.96629244     0.13700
C677        C  0.05811536  0.25323181  0.92513057    -0.24000
H678        H  0.98132426  0.28461233  0.94324835     0.15000
H679        H  0.51848246  0.17203328  0.05728695     0.15100
C680        C  0.44074667  0.19988884  0.07368692    -0.23900
H681        H  0.06932792  0.28513255  0.92860402     0.05300
H682        H  0.03869674  0.25053864  0.89118405     0.08500
H683        H  0.58682273  0.23352908  0.92192503     0.08500
H684        H  0.93031469  0.16847361  0.06694301     0.08500
H685        H  0.91114232  0.21860351  0.07769008     0.08500
H686        H  0.45910210  0.20057488  0.10849303     0.05300
C687        C  0.78924912  0.21025140  0.00769914    -0.20600
C688        C  0.79202948  0.25287439  0.00282096    -0.07100
C689        C  0.75216615  0.27461475  0.00124290     0.13800
C690        C  0.71225095  0.25330546  0.00249317    -0.20600
C691        C  0.70958149  0.21063142  0.00614300    -0.07100
C692        C  0.74945125  0.18897065  0.00878808     0.13700
C693        C  0.75154212  0.14307441  0.01285066    -0.24000
H694        H  0.81799021  0.19226186  0.01183529     0.15000
H695        H  0.68323488  0.27121628  0.00020271     0.15100
C696        C  0.75030246  0.32051703  0.99886373    -0.23900
H697        H  0.78557952  0.13200162  0.01296168     0.05300
H698        H  0.73435492  0.12890674  0.98221462     0.08500
H699        H  0.73790592  0.13153456  0.04658953     0.08500
H700        H  0.76444729  0.33298440  0.96584662     0.08500
H701        H  0.76718529  0.33373632  0.03032429     0.08500
H702        H  0.71626055  0.33160398  0.99868562     0.05300
C703        C  0.55668172  0.34545849  0.61192655    -0.20600
C704        C  0.59898118  0.35351892  0.59672197    -0.07100
C705        C  0.62290859  0.38639498  0.61602859     0.13800
C706        C  0.60257879  0.41186483  0.64772734    -0.20600
C707        C  0.55881052  0.40567134  0.65972412    -0.07100
C708        C  0.53595159  0.37121628  0.64237398     0.13700
C709        C  0.48959719  0.36109406  0.65509105    -0.24000
H710        H  0.53882520  0.31957031  0.59798522     0.15000
H711        H  0.62045968  0.43769102  0.66171895     0.15100
C712        C  0.66892702  0.39585518  0.60201838    -0.23900
H713        H  0.47834536  0.33170984  0.64042473     0.05300
H714        H  0.46716366  0.38462740  0.63993088     0.08500
H715        H  0.48711430  0.35880226  0.69443178     0.08500
H716        H  0.67038943  0.39963945  0.56274386     0.08500
H717        H  0.69081587  0.37100704  0.61460634     0.08500
H718        H  0.68149231  0.42422182  0.61814257     0.05300
C719        C  0.57580209  0.42845272  0.39537288    -0.20600
C720        C  0.54693073  0.41204074  0.36077850    -0.07100
C721        C  0.54017369  0.36946755  0.36038822     0.13800
C722        C  0.56212199  0.34473511  0.39467249    -0.20600
C723        C  0.58949685  0.36140494  0.43005798    -0.07100
C724        C  0.59652987  0.40360870  0.43056289     0.13700
C725        C  0.62528833  0.42230654  0.46872357    -0.24000
H726        H  0.58114257  0.46095826  0.39577195     0.15000
H727        H  0.55721542  0.31217322  0.39454175     0.15100
C728        C  0.00998312  0.34956305  0.32455099    -0.23900
H729        H  0.62807523  0.45569710  0.46354358     0.05300
H730        H  0.65851291  0.40938833  0.46818305     0.08500
H731        H  0.61133518  0.41584985  0.50409969     0.08500
H732        H  0.02025816  0.35797820  0.28803061     0.08500
H733        H  0.97584981  0.35906789  0.32906951     0.08500
H734        H  0.01055892  0.31599605  0.32848126     0.05300
C735        C  0.89652435  0.05308702  0.61332217    -0.20600
C736        C  0.92566582  0.06967461  0.64749258    -0.07100
C737        C  0.93252322  0.11217074  0.64759475     0.13800
C738        C  0.91120784  0.13668612  0.61264050    -0.20600
C739        C  0.88436634  0.11978219  0.57692277    -0.07100
C740        C  0.87624587  0.07769802  0.57755312     0.13700
C741        C  0.84689889  0.05882956  0.54002866    -0.24000
H742        H  0.89087948  0.02062874  0.61355205     0.15000
H743        H  0.91626895  0.16923761  0.61246497     0.15100
C744        C  0.46109143  0.13199624  0.68435504    -0.23900
H745        H  0.84366303  0.02553649  0.54590767     0.05300
H746        H  0.86056255  0.06459095  0.50440271     0.08500
H747        H  0.81389589  0.07221221  0.54063133     0.08500
H748        H  0.49534784  0.12237698  0.68115756     0.08500
H749        H  0.44974796  0.12362783  0.72047189     0.08500
H750        H  0.46060827  0.16556253  0.68028026     0.05300
C751        C  0.85684174  0.09124919  0.40243903    -0.20600
C752        C  0.87925036  0.12787811  0.41058800    -0.07100
C753        C  0.91556473  0.13811480  0.38309310     0.13800
C754        C  0.93004684  0.11073598  0.35020740    -0.20600
C755        C  0.90989293  0.07274364  0.34422224    -0.07100
C756        C  0.87187716  0.06328061  0.36980309     0.13700
C757        C  0.84819494  0.02336567  0.36465080    -0.24000
H758        H  0.82861175  0.08375323  0.42323207     0.15000
H759        H  0.95840787  0.11875994  0.32986280     0.15100
C760        C  0.93946393  0.17787292  0.38811700    -0.23900
H761        H  0.81992966  0.02081600  0.38824034     0.05300
H762        H  0.87057950  0.49811852  0.37435521     0.08500
H763        H  0.83567363  0.02033019  0.32732901     0.08500
H764        H  0.95590413  0.17905193  0.42374273     0.08500
H765        H  0.91611050  0.20309002  0.38283000     0.08500
H766        H  0.96505736  0.18206436  0.36137564     0.05300
C767        C  0.99918563  0.27630773  0.48010347    -0.20600
C768        C  0.53053067  0.25902367  0.51138788    -0.07100
C769        C  0.51944039  0.22455421  0.53976115     0.13800
C770        C  0.97825021  0.20720017  0.53389206    -0.20600
C771        C  0.94681260  0.22398563  0.50183522    -0.07100
C772        C  0.95773899  0.25887378  0.47402687     0.13700
C773        C  0.92806383  0.27765837  0.43565197    -0.24000
H774        H  0.00734443  0.30271278  0.45840861     0.15000
H775        H  0.97017571  0.18053138  0.55523497     0.15100
C776        C  0.54901695  0.20701048  0.57897295    -0.23900
H777        H  0.94534394  0.27959230  0.40155363     0.05300
H778        H  0.91939323  0.30874380  0.44572758     0.08500
H779        H  0.89771986  0.26020233  0.42851594     0.08500
H780        H  0.57875490  0.22552515  0.58584278     0.08500
H781        H  0.55861960  0.17592001  0.56988798     0.08500
H782        H  0.53134156  0.20537760  0.61283350     0.05300
C783        C  0.77725283  0.26329517  0.49615732    -0.20600
C784        C  0.77939653  0.22054269  0.49789578    -0.07100
C785        C  0.73940393  0.19870097  0.50109453     0.13800
C786        C  0.70043300  0.21958930  0.50635045    -0.20600
C787        C  0.69823919  0.26227263  0.50554847    -0.07100
C788        C  0.73810625  0.28426325  0.50076501     0.13700
C789        C  0.74190697  0.33005002  0.50025833    -0.24000
H790        H  0.80585118  0.28164440  0.49043123     0.15000
H791        H  0.67189735  0.20100881  0.51110720     0.15100
C792        C  0.73521774  0.15306181  0.49884930    -0.23900
H793        H  0.76557287  0.33936660  0.52885461     0.05300
H794        H  0.71133398  0.34601729  0.50624995     0.08500
H795        H  0.75413280  0.34098131  0.46537345     0.08500
H796        H  0.72266656  0.14072273  0.53296747     0.08500
H797        H  0.76565269  0.13718216  0.49200567     0.08500
H798        H  0.71164113  0.14521629  0.46950857     0.05300
C799        C  0.82354552  0.69871958  0.49704894     0.86200
C800        C  0.82885764  0.67451460  0.45127012    -0.54000
C801        C  0.86682008  0.65338457  0.45061706     0.09200
C802        C  0.89642356  0.65854170  0.49520936     0.20100
C803        C  0.83046059  0.66790308  0.53890685    -0.54700
C804        C  0.86821891  0.64672701  0.53748542     0.09300
C805        C  0.86532124  0.72537467  0.50089786    -0.54300
C806        C  0.90317812  0.70443194  0.49872417     0.09800
H807        H  0.80467956  0.67417667  0.42208202     0.14400
H808        H  0.92722189  0.64122000  0.49459619     0.00100
H809        H  0.80818908  0.66419600  0.56795914     0.14700
H810        H  0.86651620  0.75750237  0.50717637     0.14500
C811        C  0.65406492  0.78376281  0.50842941     0.86200
C812        C  0.64476537  0.81313691  0.46561329    -0.54000
C813        C  0.60717946  0.83426031  0.46850007     0.09200
C814        C  0.58154011  0.82386971  0.51286494     0.20100
C815        C  0.65105694  0.80933125  0.55349711    -0.54700
C816        C  0.61315260  0.83049442  0.55545729     0.08100
C817        C  0.61216362  0.75683251  0.50910577    -0.54300
C818        C  0.57455945  0.77799606  0.51238191     0.09800
H819        H  0.66563046  0.81630378  0.43527805     0.14400
H820        H  0.55081914  0.84122978  0.51424882     0.00100
H821        H  0.67582858  0.80883498  0.58205508     0.14700
H822        H  0.61041481  0.72440360  0.50530773     0.14500
C823        C  0.66506139  0.68832501  0.00634627     0.86200
C824        C  0.65939657  0.66094546  0.05112033    -0.54000
C825        C  0.62182635  0.63862900  0.05042714     0.09200
C826        C  0.59240908  0.64609660  0.00589898     0.20100
C827        C  0.65836018  0.66067337  0.96321485    -0.54700
C828        C  0.62069886  0.63831513  0.96335926     0.09300
C829        C  0.62302589  0.71417894  0.00457101    -0.54300
C830        C  0.58526496  0.69187961  0.00332502     0.09800
H831        H  0.68168008  0.66115308  0.08201816     0.14400
H832        H  0.56162141  0.62801429  0.00586673     0.00100
H833        H  0.67992161  0.66135193  0.93338133     0.14700
H834        H  0.62147480  0.74684888  0.00448542     0.14500
C835        C  0.83686335  0.77460817  0.00089331     0.86200
C836        C  0.84569598  0.80236882  0.04368511    -0.54000
C837        C  0.88411751  0.82351961  0.04232616     0.09200
C838        C  0.91114246  0.81452937  0.99925747     0.20100
C839        C  0.84219468  0.80202340  0.95609728    -0.54700
C840        C  0.88072213  0.82308263  0.95567454     0.09300
C841        C  0.87779696  0.74756984  0.00055112    -0.54300
C842        C  0.91636576  0.76835056  0.00124943     0.09800
H843        H  0.82385059  0.80457318  0.07303644     0.14400
H844        H  0.94246304  0.83173588  0.99841823     0.00100
H845        H  0.81817171  0.80405046  0.92683409     0.14700
H846        H  0.87818288  0.71502925  0.99816905     0.14500
O847        O  0.93528824  0.97143190  0.80637606    -0.58100
C848        C  0.94859860  0.54200312  0.68213780     0.74600
O849        O  0.55955962  0.51312544  0.79583586    -0.59200
C850        C  0.94755913  0.93549164  0.81511524     0.74500
C851        C  0.53779462  0.93546250  0.68986739     0.76900
Cd852      Cd  0.99377604  0.98895715  0.75052980     1.37500
O853        O  0.92938526  0.51210377  0.70170668    -0.58100
O854        O  0.99728679  0.93973099  0.68913416    -0.56900
C855        C  0.53960644  0.54096833  0.81597510     0.76900
O856        O  0.55947409  0.95809781  0.71802031    -0.59200
O857        O  0.98861337  0.54662923  0.69329145    -0.57700
O858        O  0.98022213  0.92414622  0.79312848    -0.57700
O859        O  0.00042525  0.54495876  0.80377891    -0.56900
O860        O  0.92344536  0.96985585  0.19598336    -0.58100
C861        C  0.93215064  0.54386058  0.31365797     0.74600
O862        O  0.54310119  0.97222795  0.31045587    -0.59200
C863        C  0.94371037  0.93891053  0.18343071     0.74500
C864        C  0.53512442  0.54306500  0.19338819     0.76900
Cd865      Cd  0.98182318  0.99190767  0.25457646     1.37500
O866        O  0.91328397  0.51439185  0.29317216    -0.58100
O867        O  0.99457320  0.54991466  0.20028586    -0.56900
C868        C  0.52494280  0.93990770  0.32544427     0.76900
O869        O  0.55074165  0.51179013  0.21441397    -0.59200
O870        O  0.47293479  0.54772907  0.30672650    -0.57700
O871        O  0.48036375  0.93259752  0.20432230    -0.57700
O872        O  0.98655600  0.93259398  0.30890417    -0.56900
C873        C  0.87668196  0.88928599  0.08220620    -0.20600
C874        C  0.89868724  0.85251798  0.07915441    -0.07100
C875        C  0.93481026  0.84439712  0.11024118     0.13800
C876        C  0.94802853  0.87309091  0.14372689    -0.20600
C877        C  0.92640136  0.91018291  0.14709623    -0.07100
C878        C  0.89019104  0.91843623  0.11551786     0.13700
C879        C  0.86616407  0.95795492  0.11566269    -0.24000
H880        H  0.84921688  0.89542841  0.05781061     0.15000
H881        H  0.97567382  0.86625757  0.16761585     0.15100
C882        C  0.95901479  0.80509269  0.10912840    -0.23900
H883        H  0.83972369  0.95943972  0.08759874     0.05300
H884        H  0.88910451  0.98354984  0.10881882     0.08500
H885        H  0.85094906  0.96147393  0.15054394     0.08500
H886        H  0.97481988  0.80263185  0.07451414     0.08500
H887        H  0.93591200  0.77948168  0.11458696     0.08500
H888        H  0.98502543  0.80285123  0.13759598     0.05300
C889        C  0.92283702  0.86650503  0.83954827    -0.20600
C890        C  0.92574772  0.90795544  0.84949178    -0.07100
C891        C  0.91054951  0.92156112  0.89322818     0.13800
C892        C  0.89504173  0.89308176  0.92679338    -0.20600
C893        C  0.89283926  0.85175519  0.91698820    -0.07100
C894        C  0.90571250  0.83831630  0.87245247     0.13700
C895        C  0.90220024  0.79427140  0.85999761    -0.24000
H896        H  0.93411535  0.85613094  0.80588226     0.15000
H897        H  0.88502615  0.90298987  0.96119831     0.15100
C898        C  0.41273025  0.96515074  0.90543478    -0.23900
H899        H  0.91468760  0.78889030  0.82410768     0.05300
H900        H  0.86752916  0.78432359  0.86000775     0.08500
H901        H  0.92126556  0.77543548  0.88640076     0.08500
H902        H  0.89095412  0.98341739  0.88013780     0.08500
H903        H  0.44683232  0.97662294  0.90398598     0.08500
H904        H  0.40120287  0.96994778  0.94188057     0.05300
C905        C  0.59314457  0.55101370  0.13414721    -0.20600
C906        C  0.56125146  0.56911550  0.16108171    -0.07100
C907        C  0.55417245  0.61134639  0.15537924     0.13800
C908        C  0.57761870  0.63370659  0.12153177    -0.20600
C909        C  0.60652397  0.61491467  0.09201519    -0.07100
C910        C  0.61565040  0.57338181  0.09933594     0.13700
C911        C  0.64824476  0.55178954  0.07058660    -0.24000
H912        H  0.59933115  0.51885497  0.13886350     0.15000
H913        H  0.57217719  0.66596599  0.11675096     0.15100
C914        C  0.52204507  0.63325804  0.18453923    -0.23900
H915        H  0.67345448  0.53778844  0.09497167     0.05300
H916        H  0.66519803  0.57246751  0.04541598     0.08500
H917        H  0.63146610  0.52762525  0.04993986     0.08500
H918        H  0.52974517  0.62782848  0.22311580     0.08500
H919        H  0.48835847  0.62267555  0.17566940     0.08500
H920        H  0.52303309  0.66650374  0.17724051     0.05300
C921        C  0.56233769  0.62594378  0.90302071    -0.20600
C922        C  0.60346825  0.61523045  0.92217066    -0.07100
C923        C  0.62510644  0.58182446  0.90399818     0.13800
C924        C  0.60379751  0.55858982  0.86876425    -0.20600
C925        C  0.56161346  0.56826917  0.85085906    -0.07100
C926        C  0.54118034  0.60331986  0.86749980     0.13700
C927        C  0.99692366  0.61692408  0.85012752    -0.24000
H928        H  0.54632889  0.65216861  0.91646448     0.15000
H929        H  0.61993474  0.53227247  0.85583108     0.15100
C930        C  0.66990447  0.56978484  0.92252076    -0.23900
H931        H  0.98727431  0.64563103  0.86635473     0.05300
H932        H  0.97156917  0.59390571  0.85882822     0.08500
H933        H  0.99750552  0.62258211  0.81097576     0.08500
H934        H  0.66975036  0.56426454  0.96163103     0.08500
H935        H  0.69382069  0.59412383  0.91406133     0.08500
H936        H  0.68097537  0.54169250  0.90603364     0.05300
C937        C  0.98959749  0.76046399  0.96885654    -0.20600
C938        C  0.95914873  0.74786086  0.00240902    -0.07100
C939        C  0.96974559  0.71541945  0.03490153     0.13800
C940        C  0.51047934  0.69660735  0.03242532    -0.20600
C941        C  0.54132083  0.71012412  0.99989127    -0.07100
C942        C  0.02993273  0.74131531  0.96629343     0.13700
C943        C  0.05807314  0.75318509  0.92512063    -0.24000
H944        H  0.98128290  0.78458011  0.94321706     0.15000
H945        H  0.51848057  0.67208288  0.05740522     0.15100
C946        C  0.44074695  0.69994738  0.07379777    -0.23900
H947        H  0.06927669  0.78509161  0.92855867     0.05300
H948        H  0.03865577  0.75046037  0.89117762     0.08500
H949        H  0.58677403  0.73345655  0.92194492     0.08500
H950        H  0.93028962  0.66849541  0.06699913     0.08500
H951        H  0.91109207  0.71862516  0.07769304     0.08500
H952        H  0.45910610  0.70068714  0.10859879     0.05300
C953        C  0.78921284  0.71024985  0.00768994    -0.20600
C954        C  0.79199295  0.75287466  0.00282932    -0.07100
C955        C  0.75212839  0.77461255  0.00126272     0.13800
C956        C  0.71221382  0.75330077  0.00251053    -0.20600
C957        C  0.70954472  0.71062538  0.00614345    -0.07100
C958        C  0.74941548  0.68896660  0.00877011     0.13700
C959        C  0.75150749  0.64306919  0.01279726    -0.24000
H960        H  0.81795317  0.69225883  0.01181143     0.15000
H961        H  0.68319700  0.77121184  0.00023034     0.15100
C962        C  0.75026380  0.82051469  0.99889682    -0.23900
H963        H  0.78554512  0.63199794  0.01289965     0.05300
H964        H  0.73432072  0.62892001  0.98214841     0.08500
H965        H  0.73787086  0.63150863  0.04652683     0.08500
H966        H  0.76441354  0.83298918  0.96588573     0.08500
H967        H  0.76714247  0.83372704  0.03036408     0.08500
H968        H  0.71622142  0.83160072  0.99871713     0.05300
C969        C  0.55672070  0.84547244  0.61193283    -0.20600
C970        C  0.59902000  0.85352587  0.59672401    -0.07100
C971        C  0.62296187  0.88638931  0.61604248     0.13800
C972        C  0.60264725  0.91185246  0.64776165    -0.20600
C973        C  0.55887770  0.90566914  0.65975748    -0.07100
C974        C  0.53600498  0.87122674  0.64239593     0.13700
C975        C  0.48964994  0.86111548  0.65512004    -0.24000
H976        H  0.53885288  0.81959409  0.59798308     0.15000
H977        H  0.62053700  0.93766973  0.66176272     0.15100
C978        C  0.66897659  0.89584833  0.60201749    -0.23900
H979        H  0.47838851  0.83173411  0.64045414     0.05300
H980        H  0.46722064  0.88465387  0.63996418     0.08500
H981        H  0.48717172  0.85882474  0.69446141     0.08500
H982        H  0.67042532  0.89964647  0.56274326     0.08500
H983        H  0.69086599  0.87099382  0.61458357     0.08500
H984        H  0.68155202  0.92420764  0.61815055     0.05300
C985        C  0.57588979  0.92848323  0.39534939    -0.20600
C986        C  0.54700717  0.91207889  0.36076034    -0.07100
C987        C  0.54023035  0.86950791  0.36037566     0.13800
C988        C  0.56216123  0.84477100  0.39466704    -0.20600
C989        C  0.58953780  0.86143412  0.43005422    -0.07100
C990        C  0.59660030  0.90363432  0.43054744     0.13700
C991        C  0.62536953  0.92232282  0.46870538    -0.24000
H992        H  0.58124842  0.96098663  0.39574130     0.15000
H993        H  0.55724025  0.81221078  0.39453977     0.15100
C994        C  0.01001886  0.84959888  0.32456826    -0.23900
H995        H  0.62818093  0.95571086  0.46351599     0.05300
H996        H  0.65858475  0.90938327  0.46817248     0.08500
H997        H  0.61140899  0.91588244  0.50408130     0.08500
H998        H  0.02029802  0.85799436  0.28804387     0.08500
H999        H  0.97589126  0.85912225  0.32908186     0.08500
H1000       H  0.01057530  0.81603242  0.32851578     0.05300
C1001       C  0.89651436  0.55311340  0.61333867    -0.20600
C1002       C  0.92565493  0.56969242  0.64751666    -0.07100
C1003       C  0.93251944  0.61218785  0.64762795     0.13800
C1004       C  0.91121476  0.63671015  0.61267333    -0.20600
C1005       C  0.88437331  0.61981434  0.57695057    -0.07100
C1006       C  0.87624566  0.57773185  0.57757083     0.13700
C1007       C  0.84690592  0.55887242  0.54003307    -0.24000
H1008       H  0.89086481  0.52065621  0.61355954     0.15000
H1009       H  0.91628614  0.66926034  0.61249985     0.15100
C1010       C  0.46104714  0.63201348  0.68435498    -0.23900
H1011       H  0.84366154  0.52557948  0.54590581     0.05300
H1012       H  0.86058202  0.56463512  0.50441332     0.08500
H1013       H  0.81390509  0.57226096  0.54062499     0.08500
H1014       H  0.49530962  0.62240766  0.68117015     0.08500
H1015       H  0.44969181  0.62363427  0.72046399     0.08500
H1016       H  0.46055302  0.66558003  0.68028957     0.05300
C1017       C  0.85685032  0.59129408  0.40246456    -0.20600
C1018       C  0.87929700  0.62790047  0.41063359    -0.07100
C1019       C  0.91563719  0.63810565  0.38316517     0.13800
C1020       C  0.93009720  0.61072085  0.35027534    -0.20600
C1021       C  0.90989831  0.57275207  0.34426512    -0.07100
C1022       C  0.87186668  0.56331712  0.36982865     0.13700
C1023       C  0.84815146  0.52342016  0.36466163    -0.24000
H1024       H  0.82860400  0.58382129  0.42324210     0.15000
H1025       H  0.95847483  0.61871992  0.32994609     0.15100
C1026       C  0.93958518  0.67783680  0.38821823    -0.23900
H1027       H  0.81988520  0.52088464  0.38825118     0.05300
H1028       H  0.87064346  0.99808211  0.37435435     0.08500
H1029       H  0.83562762  0.52040210  0.32733842     0.08500
H1030       H  0.95601044  0.67899136  0.42385391     0.08500
H1031       H  0.91626694  0.70308130  0.38292583     0.08500
H1032       H  0.96519720  0.68200562  0.36149453     0.05300
C1033       C  0.99921170  0.77635130  0.48013429    -0.20600
C1034       C  0.53054829  0.75904543  0.51136473    -0.07100
C1035       C  0.51945624  0.72457170  0.53973059     0.13800
C1036       C  0.97828797  0.70723600  0.53391631    -0.20600
C1037       C  0.94684523  0.72402322  0.50186752    -0.07100
C1038       C  0.95776762  0.75891139  0.47405720     0.13700
C1039       C  0.92809246  0.77768631  0.43567539    -0.24000
H1040       H  0.00736502  0.80275963  0.45844258     0.15000
H1041       H  0.97021601  0.68056629  0.55525986     0.15100
C1042       C  0.54903005  0.70702321  0.57894178    -0.23900
H1043       H  0.94537827  0.77962369  0.40158073     0.05300
H1044       H  0.91940896  0.80876950  0.44574662     0.08500
H1045       H  0.89775640  0.76021975  0.42853288     0.08500
H1046       H  0.57876540  0.72553928  0.58582057     0.08500
H1047       H  0.55863696  0.67593569  0.56984938     0.08500
H1048       H  0.53135094  0.70538177  0.61279961     0.05300
C1049       C  0.77727812  0.76332345  0.49618370    -0.20600
C1050       C  0.77942560  0.72057181  0.49789088    -0.07100
C1051       C  0.73943174  0.69872367  0.50103361     0.13800
C1052       C  0.70045216  0.71960451  0.50626468    -0.20600
C1053       C  0.69825788  0.76228699  0.50551872    -0.07100
C1054       C  0.73812580  0.78428415  0.50077542     0.13700
C1055       C  0.74192242  0.83007123  0.50029085    -0.24000
H1056       H  0.80587838  0.78167945  0.49049761     0.15000
H1057       H  0.67191052  0.70101844  0.51095470     0.15100
C1058       C  0.73525274  0.65308564  0.49875294    -0.23900
H1059       H  0.76556423  0.83938105  0.52891350     0.05300
H1060       H  0.71134296  0.84603673  0.50625445     0.08500
H1061       H  0.75417713  0.84101296  0.46542306     0.08500
H1062       H  0.72264540  0.64073133  0.53283745     0.08500
H1063       H  0.76570144  0.63720746  0.49196645     0.08500
H1064       H  0.71172328  0.64525294  0.46936297     0.05300
loop_ 
_geom_bond_atom_site_label_1 
_geom_bond_atom_site_label_2 
_geom_bond_distance 
_geom_bond_site_symmetry_2 
_ccdc_geom_bond_type 
C1            C2   1.547       .  S
C1            C7   1.549       .  S
C1            C5   1.543       .  S
C1          C252   1.543       .  S
C2            H9   1.086       .  S
C2            C3   1.366       .  D
C3            C4   1.532       .  S
C3          C220   1.486       .  S
C4            C8   1.532       .  S
C4            C6   1.533       .  S
C4           H10   1.111       .  S
C5           H11   1.086       .  S
C5            C6   1.363       .  D
C6          C207   1.476       .  S
C7           H12   1.080       .  S
C7            C8   1.363       .  D
C8          C239   1.482       .  S
C13          C14   1.544       .  S
C13          C19   1.555       .  S
C13          C17   1.547       .  S
C13         C255   1.544       .  S
C14          H21   1.086       .  S
C14          C15   1.361       .  D
C15          C16   1.526       .  S
C15         C191   1.476       .  S
C16          C20   1.527       .  S
C16          C18   1.531       .  S
C16          H22   1.111       .  S
C17          H23   1.085       .  S
C17          C18   1.368       .  D
C18         C172   1.484       .  S
C19          H24   1.079       .  S
C19          C20   1.363       .  D
C20         C236   1.481       .  S
C25          C26   1.541       .  S
C25          C31   1.554       .  S
C25          C29   1.543   1_554  S
C25         C159   1.543       .  S
C26          H33   1.085       .  S
C26          C27   1.361       .  D
C27          C28   1.531       .  S
C27         C111   1.475       .  S
C28          C32   1.529       .  S
C28          C30   1.531   1_554  S
C28          H34   1.112       .  S
C29          H35   1.085       .  S
C29          C30   1.364       .  D
C30         C124   1.481       .  S
C31          H36   1.080       .  S
C31          C32   1.365       .  D
C32         C143   1.483       .  S
C37          C38   1.546       .  S
C37          C43   1.550       .  S
C37          C41   1.541   1_554  S
C37         C156   1.547       .  S
C38          H45   1.085       .  S
C38          C39   1.364       .  D
C39          C40   1.529   1_554  S
C39          C76   1.483       .  S
C40          C44   1.534   1_556  S
C40          C42   1.534       .  S
C40          H46   1.111       .  S
C41          H47   1.085       .  S
C41          C42   1.365       .  D
C42          C95   1.476       .  S
C43          H48   1.079   1_554  S
C43          C44   1.361       .  D
C44         C140   1.483       .  S
O49          C52   1.264       .  A
O49         Cd54   2.478       .  S
C50          O59   1.265       .  A
C50          O55   1.266       .  A
C50         C204   1.480       .  S
O51          C57   1.268       .  A
O51        Cd852   2.500   1_445  S
C52          O60   1.262       .  A
C52          C92   1.479       .  S
C53          O58   1.269       .  A
C53         O588   1.263   1_455  A
C53         C175   1.484       .  S
Cd54         O60   2.461       .  S
Cd54         O56   2.410       .  S
Cd54        O849   2.498       .  S
Cd54        O327   2.417       .  S
Cd54        O325   2.459       .  S
Cd54        O321   2.479       .  S
Cd54        O590   2.487       .  S
O55        Cd320   2.479   1_545  S
O56         C585   1.264       .  A
C57         O593   1.261       .  A
C57         C127   1.489       .  S
O58        Cd586   2.487   1_455  S
O59        Cd320   2.459   1_545  S
O61         C589   1.261       .  A
O61        Cd320   2.416   1_545  S
O62          C65   1.267       .  A
O62         Cd67   2.506       .  S
C63          O68   1.268       .  A
C63         O604   1.264       .  A
C63         C223   1.489       .  S
O64          C70   1.266       .  A
O64        Cd599   2.480   1_455  S
C65         O605   1.264       .  A
C65          C79   1.493       .  S
C66          O71   1.265       .  A
C66         O601   1.263   1_455  A
C66         C108   1.482       .  S
Cd67         O74   2.448       .  S
Cd67        O596   2.480       .  S
Cd67        O605   2.435       .  S
Cd67        O870   2.423       .  S
Cd67        O334   2.525       .  S
Cd67        O869   2.485       .  S
Cd67        O335   2.451       .  S
O68        Cd333   2.525   1_545  S
O69         C598   1.263       .  A
O69        Cd333   2.451   1_545  S
C70         O606   1.264   1_455  A
C70         C188   1.484       .  S
O71        Cd865   2.484   1_445  S
O72         C595   1.264       .  A
O72        Cd865   2.420   1_545  S
O73         C597   1.264       .  A
O73        Cd599   2.434       .  S
O74         C602   1.264       .  A
C75          C76   1.402       .  A
C75          C80   1.410       .  A
C75          H82   1.084       .  S
C76          C77   1.409       .  A
C77          C84   1.504       .  S
C77          C78   1.400       .  A
C78          C79   1.407       .  A
C78          H83   1.084       .  S
C79          C80   1.421       .  A
C80          C81   1.506       .  S
C81          H85   1.111       .  S
C81          H86   1.110       .  S
C81          H87   1.110       .  S
C84          H88   1.107       .  S
C84          H89   1.108       .  S
C84          H90   1.111       .  S
C91          C92   1.405       .  A
C91          C96   1.404       .  A
C91          H98   1.084       .  S
C92          C93   1.415       .  A
C93         C632   1.507       .  S
C93          C94   1.403       .  A
C94          C95   1.400       .  A
C94          H99   1.085       .  S
C95          C96   1.410       .  A
C96          C97   1.507       .  S
C97         H101   1.111       .  S
C97         H102   1.110       .  S
C97         H103   1.109       .  S
C100        C625   1.507       .  S
C100        H105   1.110       .  S
C100        H106   1.111       .  S
C100        H636   1.110       .  S
H104        C632   1.110       .  S
C107        C108   1.407       .  A
C107        C112   1.405       .  A
C107        H114   1.084       .  S
C108        C109   1.417       .  A
C109        C116   1.508       .  S
C109        C110   1.401       .  A
C110        C111   1.398       .  A
C110        H115   1.084       .  S
C111        C112   1.411       .  A
C112        C113   1.506       .  S
C113        H117   1.110       .  S
C113        H118   1.108       .  S
C113        H119   1.110       .  S
C116        H120   1.110       .  S
C116        H121   1.109   1_455  S
C116        H122   1.111       .  S
C123        C124   1.399       .  A
C123        C128   1.399       .  A
C123        H130   1.084       .  S
C124        C125   1.411       .  A
C125        C132   1.506       .  S
C125        C126   1.407       .  A
C126        C127   1.409       .  A
C126        H131   1.083       .  S
C127        C128   1.422       .  A
C128        C661   1.510   1_455  S
C129        C660   1.510       .  S
C129        H133   1.111       .  S
C129        H134   1.110       .  S
C129        H135   1.111       .  S
C132        H136   1.108       .  S
C132        H137   1.108       .  S
C132        H138   1.110       .  S
C139        C140   1.402   1_556  A
C139        C144   1.401       .  A
C139        H146   1.085       .  S
C140        C141   1.420       .  A
C141        C680   1.510       .  S
C141        C674   1.399       .  A
C142        C143   1.399       .  A
C142        C673   1.399   1_455  A
C142        H147   1.080       .  S
C143        C676   1.415   1_554  A
C144        C145   1.508       .  S
C144        C675   1.415       .  A
C145        H149   1.110       .  S
C145        H150   1.111       .  S
C145        H683   1.107       .  S
C148        C673   1.511       .  S
C148        H154   1.111       .  S
C148        H684   1.111       .  S
C148        H685   1.104       .  S
H151        C677   1.107       .  S
H152        C680   1.110       .  S
H153        C680   1.104       .  S
C155        C156   1.412       .  A
C155        C160   1.403       .  A
C155        H162   1.071       .  S
C156        C157   1.424       .  A
C157        C164   1.517   1_554  S
C157        C158   1.406       .  A
C158        C159   1.411       .  A
C158        H163   1.074   1_554  S
C159        C160   1.423       .  A
C160        C161   1.518       .  S
C161        H165   1.111       .  S
C161        H166   1.105   1_554  S
C161        H167   1.105       .  S
C164        H168   1.105       .  S
C164        H169   1.106   1_556  S
C164        H170   1.111       .  S
C171        C172   1.401       .  A
C171        C176   1.397       .  A
C171        H178   1.085       .  S
C172        C173   1.413       .  A
C173        C180   1.506       .  S
C173        C174   1.408       .  A
C174        C175   1.408       .  A
C174        H179   1.084       .  S
C175        C176   1.418       .  A
C176        C177   1.510   1_455  S
C177        H181   1.111       .  S
C177        H182   1.110       .  S
C177        H183   1.110       .  S
C180        H184   1.109       .  S
C180        H185   1.108       .  S
C180        H186   1.111       .  S
C187        C188   1.407       .  A
C187        C192   1.405       .  A
C187        H194   1.084       .  S
C188        C189   1.419       .  A
C189        C728   1.508       .  S
C189        C190   1.403       .  A
C190        C191   1.398       .  A
C190        H195   1.084       .  S
C191        C192   1.408       .  A
C192        C193   1.505       .  S
C193        H197   1.111       .  S
C193        H198   1.111       .  S
C193        H199   1.110       .  S
C196        C721   1.508       .  S
C196        H200   1.110       .  S
C196        H201   1.110       .  S
C196        H202   1.111       .  S
C203        C204   1.406       .  A
C203        C208   1.406       .  A
C203        H210   1.083       .  S
C204        C205   1.416       .  A
C205        C744   1.508       .  S
C205        C206   1.403       .  A
C206        C207   1.399       .  A
C206        H211   1.084       .  S
C207        C208   1.408       .  A
C208        C209   1.505       .  S
C209        H213   1.111       .  S
C209        H214   1.109       .  S
C209        H215   1.111       .  S
C212        C737   1.508       .  S
C212        H216   1.109       .  S
C212        H217   1.110       .  S
C212        H218   1.111       .  S
C219        C220   1.404       .  A
C219        C224   1.412       .  A
C219        H226   1.084       .  S
C220        C221   1.411       .  A
C221        C228   1.503       .  S
C221        C222   1.398       .  A
C222        C223   1.403       .  A
C222        H227   1.084       .  S
C223        C224   1.419       .  A
C224        C225   1.505       .  S
C225        H229   1.111       .  S
C225        H231   1.110       .  S
C225        H496   1.110   1_545  S
C228        H232   1.105       .  S
C228        H233   1.108       .  S
C228        H234   1.111       .  S
H230        C491   1.110       .  S
C235        C240   1.397       .  A
C235        C768   1.400       .  A
C235        H242   1.081       .  S
C236        C237   1.416       .  A
C236        C767   1.400   1_455  A
C237        C244   1.508       .  S
C237        C770   1.401   1_455  A
C238        C239   1.403       .  A
C238        C769   1.401       .  A
C238        H243   1.082       .  S
C239        C240   1.417       .  A
C240        C241   1.510       .  S
C241        H245   1.111       .  S
C241        H246   1.110       .  S
C241        H247   1.104       .  S
C244        H248   1.107       .  S
C244        H249   1.110       .  S
C244        H250   1.111       .  S
C251        C252   1.413       .  A
C251        C256   1.405       .  A
C251        H258   1.075       .  S
C252        C253   1.420       .  A
C253        C260   1.514       .  S
C253        C254   1.402       .  A
C254        C255   1.411       .  A
C254        H259   1.073       .  S
C255        C256   1.424       .  A
C256        C257   1.514       .  S
C257        H261   1.111       .  S
C257        H262   1.102       .  S
C257        H263   1.111       .  S
C260        H264   1.110       .  S
C260        H265   1.102       .  S
C260        H266   1.111       .  S
C267        C268   1.547       .  S
C267        C273   1.549       .  S
C267        C271   1.543       .  S
C267        C518   1.543       .  S
C268        H275   1.086       .  S
C268        C269   1.366       .  D
C269        C270   1.532       .  S
C269        C486   1.486       .  S
C270        C274   1.532       .  S
C270        C272   1.533       .  S
C270        H276   1.111       .  S
C271        H277   1.086       .  S
C271        C272   1.363       .  D
C272        C473   1.476       .  S
C273        H278   1.080       .  S
C273        C274   1.363       .  D
C274        C505   1.482       .  S
C279        C280   1.544       .  S
C279        C285   1.555       .  S
C279        C283   1.547       .  S
C279        C521   1.544       .  S
C280        H287   1.086       .  S
C280        C281   1.361       .  D
C281        C282   1.526       .  S
C281        C457   1.476       .  S
C282        C286   1.527       .  S
C282        C284   1.531       .  S
C282        H288   1.111       .  S
C283        H289   1.085       .  S
C283        C284   1.368       .  D
C284        C438   1.484       .  S
C285        H290   1.079       .  S
C285        C286   1.363       .  D
C286        C502   1.481       .  S
C291        C292   1.541       .  S
C291        C297   1.554       .  S
C291        C295   1.544   1_554  S
C291        C425   1.543       .  S
C292        H299   1.085       .  S
C292        C293   1.361       .  D
C293        C294   1.531       .  S
C293        C377   1.475       .  S
C294        C298   1.529       .  S
C294        C296   1.531   1_554  S
C294        H300   1.112       .  S
C295        H301   1.085       .  S
C295        C296   1.364       .  D
C296        C390   1.481       .  S
C297        H302   1.080       .  S
C297        C298   1.365       .  D
C298        C409   1.483       .  S
C303        C304   1.546       .  S
C303        C309   1.550       .  S
C303        C307   1.541   1_554  S
C303        C422   1.547       .  S
C304        H311   1.085       .  S
C304        C305   1.364       .  D
C305        C306   1.529   1_554  S
C305        C342   1.483       .  S
C306        C310   1.534   1_556  S
C306        C308   1.534       .  S
C306        H312   1.111       .  S
C307        H313   1.085       .  S
C307        C308   1.365       .  D
C308        C361   1.476       .  S
C309        H314   1.079   1_554  S
C309        C310   1.361       .  D
C310        C406   1.483       .  S
O315        C318   1.264       .  A
O315       Cd320   2.478       .  S
C316        O325   1.265       .  A
C316        O321   1.266       .  A
C316        C470   1.480       .  S
O317        C323   1.268       .  A
O317       Cd586   2.500   1_455  S
C318        O326   1.262       .  A
C318        C358   1.479       .  S
C319        O324   1.269       .  A
C319        O854   1.264   1_455  A
C319        C441   1.484       .  S
Cd320       O583   2.498   1_565  S
Cd320       O326   2.462       .  S
Cd320       O856   2.487       .  S
Cd320       O322   2.410       .  S
O322        C851   1.264       .  A
C323        O859   1.261       .  A
C323        C393   1.489       .  S
O324       Cd852   2.487   1_455  S
O327        C855   1.261       .  A
O328        C331   1.267       .  A
O328       Cd333   2.506       .  S
C329        O870   1.264       .  A
C329        O334   1.268       .  A
C329        C489   1.489       .  S
O330        C336   1.266       .  A
O330       Cd865   2.480   1_455  S
C331        O871   1.264       .  A
C331        C345   1.493       .  S
C332        O337   1.265       .  A
C332        O867   1.263   1_455  A
C332        C374   1.482       .  S
Cd333       O862   2.481       .  S
Cd333       O340   2.448       .  S
Cd333       O871   2.435       .  S
Cd333       O604   2.423   1_565  S
Cd333       O603   2.485   1_565  S
O335        C864   1.263       .  A
C336        O872   1.264   1_455  A
C336        C454   1.484       .  S
O337       Cd599   2.484   1_455  S
O338        C861   1.264       .  A
O338       Cd599   2.420       .  S
O339        C863   1.264       .  A
O339       Cd865   2.434       .  S
O340        C868   1.264       .  A
C341        C342   1.402       .  A
C341        C346   1.410       .  A
C341        H348   1.084       .  S
C342        C343   1.409       .  A
C343        C350   1.504       .  S
C343        C344   1.400       .  A
C344        C345   1.407       .  A
C344        H349   1.084       .  S
C345        C346   1.421       .  A
C346        C347   1.506       .  S
C347        H351   1.111       .  S
C347        H352   1.110       .  S
C347        H353   1.110       .  S
C350        H354   1.107       .  S
C350        H355   1.108       .  S
C350        H356   1.111       .  S
C357        C358   1.406       .  A
C357        C362   1.404       .  A
C357        H364   1.084       .  S
C358        C359   1.416       .  A
C359        C898   1.507       .  S
C359        C360   1.403       .  A
C360        C361   1.400       .  A
C360        H365   1.085       .  S
C361        C362   1.410       .  A
C362        C363   1.507       .  S
C363        H367   1.111       .  S
C363        H368   1.110       .  S
C363        H369   1.109       .  S
C366        C891   1.507       .  S
C366        H902   1.110       .  S
C366        H371   1.110       .  S
C366        H372   1.111       .  S
H370        C898   1.110       .  S
C373        C374   1.407       .  A
C373        C378   1.405       .  A
C373        H380   1.084       .  S
C374        C375   1.417       .  A
C375        C382   1.508       .  S
C375        C376   1.401       .  A
C376        C377   1.398       .  A
C376        H381   1.084       .  S
C377        C378   1.411       .  A
C378        C379   1.506       .  S
C379        H383   1.110       .  S
C379        H384   1.108       .  S
C379        H385   1.110       .  S
C382        H386   1.110       .  S
C382        H387   1.109   1_455  S
C382        H388   1.111       .  S
C389        C390   1.399       .  A
C389        C394   1.399       .  A
C389        H396   1.084       .  S
C390        C391   1.411       .  A
C391        C398   1.506       .  S
C391        C392   1.407       .  A
C392        C393   1.409       .  A
C392        H397   1.083       .  S
C393        C394   1.422       .  A
C394        C927   1.510   1_455  S
C395        C926   1.510       .  S
C395        H399   1.111       .  S
C395        H400   1.110       .  S
C395        H401   1.111       .  S
C398        H402   1.108       .  S
C398        H403   1.108       .  S
C398        H404   1.110       .  S
C405        C406   1.402   1_556  A
C405        C410   1.401       .  A
C405        H412   1.085       .  S
C406        C407   1.420       .  A
C407        C946   1.510       .  S
C407        C940   1.399       .  A
C408        C939   1.399   1_455  A
C408        C409   1.399       .  A
C408        H413   1.080       .  S
C409        C942   1.415   1_554  A
C410        C411   1.508       .  S
C410        C941   1.415       .  A
C411        H415   1.110       .  S
C411        H416   1.111       .  S
C411        H949   1.107       .  S
C414        C939   1.511       .  S
C414        H950   1.111       .  S
C414        H951   1.104       .  S
C414        H420   1.111       .  S
H417        C943   1.107       .  S
H418        C946   1.110       .  S
H419        C946   1.104       .  S
C421        C422   1.412       .  A
C421        C426   1.403       .  A
C421        H428   1.071       .  S
C422        C423   1.424       .  A
C423        C430   1.517   1_554  S
C423        C424   1.406       .  A
C424        C425   1.411       .  A
C424        H429   1.074   1_554  S
C425        C426   1.423       .  A
C426        C427   1.518       .  S
C427        H431   1.111       .  S
C427        H432   1.105   1_554  S
C427        H433   1.105       .  S
C430        H434   1.105       .  S
C430        H435   1.106   1_556  S
C430        H436   1.111       .  S
C437        C438   1.401       .  A
C437        C442   1.397       .  A
C437        H444   1.085       .  S
C438        C439   1.413       .  A
C439        C446   1.506       .  S
C439        C440   1.408       .  A
C440        C441   1.408       .  A
C440        H445   1.084       .  S
C441        C442   1.418       .  A
C442        C443   1.510   1_455  S
C443        H447   1.111       .  S
C443        H448   1.110       .  S
C443        H449   1.110       .  S
C446        H450   1.109       .  S
C446        H451   1.108       .  S
C446        H452   1.111       .  S
C453        C454   1.407       .  A
C453        C458   1.405       .  A
C453        H460   1.084       .  S
C454        C455   1.419       .  A
C455        C994   1.508       .  S
C455        C456   1.403       .  A
C456        C457   1.398       .  A
C456        H461   1.084       .  S
C457        C458   1.408       .  A
C458        C459   1.505       .  S
C459        H463   1.111       .  S
C459        H464   1.111       .  S
C459        H465   1.110       .  S
C462        C987   1.508       .  S
C462        H466   1.110       .  S
C462        H467   1.110       .  S
C462        H468   1.111       .  S
C469        C470   1.406       .  A
C469        C474   1.406       .  A
C469        H476   1.083       .  S
C470        C471   1.416       .  A
C471       C1010   1.508       .  S
C471        C472   1.403       .  A
C472        C473   1.399       .  A
C472        H477   1.084       .  S
C473        C474   1.408       .  A
C474        C475   1.505       .  S
C475        H479   1.111       .  S
C475        H480   1.109       .  S
C475        H481   1.111       .  S
C478       C1003   1.508       .  S
C478        H482   1.109       .  S
C478        H483   1.110       .  S
C478        H484   1.111       .  S
C485        C486   1.404       .  A
C485        C490   1.412       .  A
C485        H492   1.084       .  S
C486        C487   1.411       .  A
C487        C494   1.503       .  S
C487        C488   1.398       .  A
C488        C489   1.403       .  A
C488        H493   1.084       .  S
C489        C490   1.419       .  A
C490        C491   1.505       .  S
C491        H495   1.111       .  S
C491        H497   1.110       .  S
C494        H498   1.105       .  S
C494        H499   1.108       .  S
C494        H500   1.111       .  S
C501       C1034   1.400       .  A
C501        C506   1.397       .  A
C501        H508   1.081       .  S
C502       C1033   1.400   1_455  A
C502        C503   1.416       .  A
C503        C510   1.508       .  S
C503       C1036   1.401   1_455  A
C504       C1035   1.401       .  A
C504        C505   1.403       .  A
C504        H509   1.082       .  S
C505        C506   1.417       .  A
C506        C507   1.510       .  S
C507        H511   1.111       .  S
C507        H512   1.110       .  S
C507        H513   1.104       .  S
C510        H514   1.107       .  S
C510        H515   1.110       .  S
C510        H516   1.111       .  S
C517        C518   1.413       .  A
C517        C522   1.405       .  A
C517        H524   1.075       .  S
C518        C519   1.420       .  A
C519        C526   1.514       .  S
C519        C520   1.402       .  A
C520        C521   1.411       .  A
C520        H525   1.073       .  S
C521        C522   1.424       .  A
C522        C523   1.514       .  S
C523        H527   1.111       .  S
C523        H528   1.102       .  S
C523        H529   1.111       .  S
C526        H530   1.110       .  S
C526        H531   1.102       .  S
C526        H532   1.111       .  S
C533        C534   1.547       .  S
C533        C539   1.549       .  S
C533        C537   1.543       .  S
C533        C784   1.543       .  S
C534        H541   1.086       .  S
C534        C535   1.366       .  D
C535        C536   1.532       .  S
C535        C752   1.486       .  S
C536        C540   1.532       .  S
C536        C538   1.533       .  S
C536        H542   1.111       .  S
C537        H543   1.086       .  S
C537        C538   1.363       .  D
C538        C739   1.476       .  S
C539        H544   1.080       .  S
C539        C540   1.363       .  D
C540        C771   1.482       .  S
C545        C546   1.544       .  S
C545        C551   1.555       .  S
C545        C549   1.547       .  S
C545        C787   1.543       .  S
C546        H553   1.086       .  S
C546        C547   1.361       .  D
C547        C548   1.526       .  S
C547        C723   1.476       .  S
C548        C552   1.527       .  S
C548        C550   1.531       .  S
C548        H554   1.111       .  S
C549        H555   1.085       .  S
C549        C550   1.367       .  D
C550        C704   1.484       .  S
C551        H556   1.079       .  S
C551        C552   1.363       .  D
C552        C768   1.481       .  S
C557        C558   1.541       .  S
C557        C563   1.554       .  S
C557        C561   1.544   1_554  S
C557        C691   1.543       .  S
C558        H565   1.085       .  S
C558        C559   1.361       .  D
C559        C560   1.531       .  S
C559        C643   1.475       .  S
C560        C564   1.529       .  S
C560        C562   1.531   1_554  S
C560        H566   1.112       .  S
C561        H567   1.086       .  S
C561        C562   1.364       .  D
C562        C656   1.481       .  S
C563        H568   1.080       .  S
C563        C564   1.365       .  D
C564        C675   1.482   1_554  S
C569        C570   1.546       .  S
C569        C575   1.550       .  S
C569        C573   1.541   1_554  S
C569        C688   1.547       .  S
C570        H577   1.085       .  S
C570        C571   1.364       .  D
C571        C572   1.529   1_554  S
C571        C608   1.483       .  S
C572        C576   1.534   1_556  S
C572        C574   1.534       .  S
C572        H578   1.111       .  S
C573        H579   1.085       .  S
C573        C574   1.365       .  D
C574        C627   1.475       .  S
C575        H580   1.079   1_554  S
C575        C576   1.361       .  D
C576        C672   1.483       .  S
O581        C584   1.264       .  A
O581       Cd586   2.478       .  S
C582        O591   1.265       .  A
C582        O587   1.266       .  A
C582        C736   1.480       .  S
O583        C589   1.268       .  A
C584        O592   1.262       .  A
C584        C624   1.479       .  S
C585        O590   1.269       .  A
C585        C707   1.484       .  S
Cd586       O859   2.413   1_655  S
Cd586       O592   2.460       .  S
Cd586       O857   2.459       .  S
Cd586       O853   2.479       .  S
Cd586       O588   2.409       .  S
O587       Cd852   2.479   1_545  S
C589        C659   1.489       .  S
O591       Cd852   2.460   1_545  S
O593       Cd852   2.413   1_445  S
O594        C597   1.267       .  A
O594       Cd599   2.504       .  S
C595        O600   1.268       .  A
C595        C755   1.490       .  S
O596        C602   1.266       .  A
C597        C611   1.492       .  S
C598        O603   1.265       .  A
C598        C640   1.482       .  S
Cd599       O606   2.450       .  S
Cd599       O866   2.527       .  S
Cd599       O867   2.451       .  S
O600       Cd865   2.527   1_545  S
O601       Cd865   2.451   1_545  S
C602        C720   1.483       .  S
C607        C608   1.402       .  A
C607        C612   1.409       .  A
C607        H614   1.084       .  S
C608        C609   1.409       .  A
C609        C616   1.504       .  S
C609        C610   1.400       .  A
C610        C611   1.407       .  A
C610        H615   1.084       .  S
C611        C612   1.420       .  A
C612        C613   1.506       .  S
C613        H617   1.111       .  S
C613        H618   1.110       .  S
C613        H619   1.110       .  S
C616        H620   1.107       .  S
C616        H621   1.108       .  S
C616        H622   1.111       .  S
C623        C624   1.406       .  A
C623        C628   1.404       .  A
C623        H630   1.084       .  S
C624        C625   1.416       .  A
C625        C626   1.404       .  A
C626        C627   1.400       .  A
C626        H631   1.085       .  S
C627        C628   1.410       .  A
C628        C629   1.507       .  S
C629        H633   1.111       .  S
C629        H634   1.110       .  S
C629        H635   1.109       .  S
C632        H637   1.110       .  S
C632        H638   1.111       .  S
C639        C640   1.407       .  A
C639        C644   1.405       .  A
C639        H646   1.084       .  S
C640        C641   1.417       .  A
C641        C648   1.508       .  S
C641        C642   1.401       .  A
C642        C643   1.398       .  A
C642        H647   1.084       .  S
C643        C644   1.411       .  A
C644        C645   1.506       .  S
C645        H649   1.110       .  S
C645        H650   1.108       .  S
C645        H651   1.110       .  S
C648        H652   1.110       .  S
C648        H653   1.109       .  S
C648        H654   1.111       .  S
C655        C656   1.399       .  A
C655        C660   1.399       .  A
C655        H662   1.084       .  S
C656        C657   1.411       .  A
C657        C664   1.506       .  S
C657        C658   1.407       .  A
C658        C659   1.409       .  A
C658        H663   1.083       .  S
C659        C660   1.421       .  A
C661        H665   1.111       .  S
C661        H666   1.110       .  S
C661        H667   1.111       .  S
C664        H668   1.108       .  S
C664        H669   1.108       .  S
C664        H670   1.110       .  S
C671        C672   1.402   1_556  A
C671        C676   1.401   1_655  A
C671        H678   1.085       .  S
C672        C673   1.420       .  A
C674        C675   1.399   1_554  A
C674        H679   1.081       .  S
C676        C677   1.508       .  S
C677        H681   1.110       .  S
C677        H682   1.111       .  S
C680        H686   1.111       .  S
C687        C688   1.412       .  A
C687        C692   1.403       .  A
C687        H694   1.070       .  S
C688        C689   1.424       .  A
C689        C696   1.517   1_554  S
C689        C690   1.406       .  A
C690        C691   1.411       .  A
C690        H695   1.074       .  S
C691        C692   1.423       .  A
C692        C693   1.518       .  S
C693        H697   1.110       .  S
C693        H698   1.105   1_554  S
C693        H699   1.105       .  S
C696        H700   1.105       .  S
C696        H701   1.106   1_556  S
C696        H702   1.111       .  S
C703        C704   1.401       .  A
C703        C708   1.397       .  A
C703        H710   1.085       .  S
C704        C705   1.413       .  A
C705        C712   1.506       .  S
C705        C706   1.408       .  A
C706        C707   1.408       .  A
C706        H711   1.084       .  S
C707        C708   1.418       .  A
C708        C709   1.510       .  S
C709        H713   1.111       .  S
C709        H714   1.110       .  S
C709        H715   1.110       .  S
C712        H716   1.109       .  S
C712        H717   1.108       .  S
C712        H718   1.111       .  S
C719        C720   1.407       .  A
C719        C724   1.405       .  A
C719        H726   1.084       .  S
C720        C721   1.419       .  A
C721        C722   1.403       .  A
C722        C723   1.398       .  A
C722        H727   1.084       .  S
C723        C724   1.408       .  A
C724        C725   1.505       .  S
C725        H729   1.111       .  S
C725        H730   1.111       .  S
C725        H731   1.110       .  S
C728        H732   1.110       .  S
C728        H733   1.110   1_455  S
C728        H734   1.111       .  S
C735        C736   1.406       .  A
C735        C740   1.406       .  A
C735        H742   1.083       .  S
C736        C737   1.416       .  A
C737        C738   1.403       .  A
C738        C739   1.399       .  A
C738        H743   1.084       .  S
C739        C740   1.408       .  A
C740        C741   1.505       .  S
C741        H745   1.111       .  S
C741        H746   1.109       .  S
C741        H747   1.111       .  S
C744        H748   1.109       .  S
C744        H749   1.110       .  S
C744        H750   1.111       .  S
C751        C752   1.404       .  A
C751        C756   1.412       .  A
C751        H758   1.084       .  S
C752        C753   1.411       .  A
C753        C760   1.504       .  S
C753        C754   1.398       .  A
C754        C755   1.404       .  A
C754        H759   1.084       .  S
C755        C756   1.419       .  A
C756        C757   1.505       .  S
C757        H761   1.111       .  S
C757       H1028   1.110   1_545  S
C757        H763   1.110       .  S
C760        H764   1.105       .  S
C760        H765   1.108       .  S
C760        H766   1.111       .  S
H762       C1023   1.110       .  S
C767        C772   1.397       .  A
C767        H774   1.081   1_655  S
C768        C769   1.416       .  A
C769        C776   1.508       .  S
C770        C771   1.403       .  A
C770        H775   1.082       .  S
C771        C772   1.417       .  A
C772        C773   1.510       .  S
C773        H777   1.111       .  S
C773        H778   1.110       .  S
C773        H779   1.104       .  S
C776        H780   1.107       .  S
C776        H781   1.110       .  S
C776        H782   1.111       .  S
C783        C784   1.413       .  A
C783        C788   1.405       .  A
C783        H790   1.075       .  S
C784        C785   1.420       .  A
C785        C792   1.514       .  S
C785        C786   1.402       .  A
C786        C787   1.411       .  A
C786        H791   1.073       .  S
C787        C788   1.424       .  A
C788        C789   1.514       .  S
C789        H793   1.111       .  S
C789        H794   1.102       .  S
C789        H795   1.111       .  S
C792        H796   1.110       .  S
C792        H797   1.102       .  S
C792        H798   1.111       .  S
C799        C800   1.547       .  S
C799        C805   1.549       .  S
C799        C803   1.543       .  S
C799       C1050   1.543       .  S
C800        H807   1.086       .  S
C800        C801   1.366       .  D
C801        C802   1.532       .  S
C801       C1018   1.486       .  S
C802        C806   1.532       .  S
C802        C804   1.533       .  S
C802        H808   1.111       .  S
C803        H809   1.086       .  S
C803        C804   1.363       .  D
C804       C1005   1.476       .  S
C805        H810   1.080       .  S
C805        C806   1.363       .  D
C806       C1037   1.482       .  S
C811        C812   1.544       .  S
C811        C817   1.555       .  S
C811        C815   1.547       .  S
C811       C1053   1.543       .  S
C812        H819   1.086       .  S
C812        C813   1.361       .  D
C813        C814   1.526       .  S
C813        C989   1.476       .  S
C814        C818   1.527       .  S
C814        C816   1.531       .  S
C814        H820   1.111       .  S
C815        H821   1.085       .  S
C815        C816   1.367       .  D
C816        C970   1.484       .  S
C817        H822   1.079       .  S
C817        C818   1.363       .  D
C818       C1034   1.481       .  S
C823        C824   1.541       .  S
C823        C829   1.554       .  S
C823        C827   1.544   1_554  S
C823        C957   1.543       .  S
C824        H831   1.085       .  S
C824        C825   1.361       .  D
C825        C826   1.531       .  S
C825        C909   1.475       .  S
C826        C830   1.529       .  S
C826        C828   1.531   1_554  S
C826        H832   1.112       .  S
C827        H833   1.086       .  S
C827        C828   1.364       .  D
C828        C922   1.481       .  S
C829        H834   1.080       .  S
C829        C830   1.365       .  D
C830        C941   1.482   1_554  S
C835        C836   1.546       .  S
C835        C841   1.550       .  S
C835        C839   1.541   1_554  S
C835        C954   1.547       .  S
C836        H843   1.085       .  S
C836        C837   1.364       .  D
C837        C838   1.529   1_554  S
C837        C874   1.483       .  S
C838        C842   1.534   1_556  S
C838        C840   1.534       .  S
C838        H844   1.111       .  S
C839        H845   1.085       .  S
C839        C840   1.365       .  D
C840        C893   1.475       .  S
C841        H846   1.079   1_554  S
C841        C842   1.361       .  D
C842        C938   1.483       .  S
O847        C850   1.264       .  A
O847       Cd852   2.478       .  S
C848        O857   1.265       .  A
C848        O853   1.266       .  A
C848       C1002   1.480       .  S
O849        C855   1.268       .  A
C850        O858   1.262       .  A
C850        C890   1.479       .  S
C851        O856   1.269       .  A
C851        C973   1.484       .  S
Cd852       O858   2.460       .  S
Cd852       O854   2.409       .  S
C855        C925   1.489       .  S
O860        C863   1.267       .  A
O860       Cd865   2.504       .  S
C861        O866   1.268       .  A
C861       C1021   1.490       .  S
O862        C868   1.266       .  A
C863        C877   1.492       .  S
C864        O869   1.265       .  A
C864        C906   1.482       .  S
Cd865       O872   2.450       .  S
C868        C986   1.483       .  S
C873        C874   1.402       .  A
C873        C878   1.409       .  A
C873        H880   1.084       .  S
C874        C875   1.409       .  A
C875        C882   1.504       .  S
C875        C876   1.400       .  A
C876        C877   1.407       .  A
C876        H881   1.084       .  S
C877        C878   1.420       .  A
C878        C879   1.506       .  S
C879        H883   1.111       .  S
C879        H884   1.110       .  S
C879        H885   1.110       .  S
C882        H886   1.107       .  S
C882        H887   1.108       .  S
C882        H888   1.111       .  S
C889        C890   1.406       .  A
C889        C894   1.404       .  A
C889        H896   1.084       .  S
C890        C891   1.416       .  A
C891        C892   1.404       .  A
C892        C893   1.400       .  A
C892        H897   1.085       .  S
C893        C894   1.410       .  A
C894        C895   1.507       .  S
C895        H899   1.111       .  S
C895        H900   1.110       .  S
C895        H901   1.109       .  S
C898        H903   1.110       .  S
C898        H904   1.111       .  S
C905        C906   1.407       .  A
C905        C910   1.405       .  A
C905        H912   1.084       .  S
C906        C907   1.417       .  A
C907        C914   1.508       .  S
C907        C908   1.401       .  A
C908        C909   1.398       .  A
C908        H913   1.084       .  S
C909        C910   1.411       .  A
C910        C911   1.506       .  S
C911        H915   1.110       .  S
C911        H916   1.108       .  S
C911        H917   1.110       .  S
C914        H918   1.110       .  S
C914        H919   1.109       .  S
C914        H920   1.111       .  S
C921        C922   1.399       .  A
C921        C926   1.399       .  A
C921        H928   1.084       .  S
C922        C923   1.411       .  A
C923        C930   1.506       .  S
C923        C924   1.407       .  A
C924        C925   1.409       .  A
C924        H929   1.083       .  S
C925        C926   1.421       .  A
C927        H931   1.111       .  S
C927        H932   1.110       .  S
C927        H933   1.111       .  S
C930        H934   1.108       .  S
C930        H935   1.108       .  S
C930        H936   1.110       .  S
C937        C938   1.402   1_556  A
C937        C942   1.401   1_655  A
C937        H944   1.085       .  S
C938        C939   1.420       .  A
C940        C941   1.399   1_554  A
C940        H945   1.081       .  S
C942        C943   1.508       .  S
C943        H947   1.110       .  S
C943        H948   1.111       .  S
C946        H952   1.111       .  S
C953        C954   1.412       .  A
C953        C958   1.403       .  A
C953        H960   1.070       .  S
C954        C955   1.424       .  A
C955        C962   1.517   1_554  S
C955        C956   1.406       .  A
C956        C957   1.411       .  A
C956        H961   1.074       .  S
C957        C958   1.423       .  A
C958        C959   1.518       .  S
C959        H963   1.110       .  S
C959        H964   1.105   1_554  S
C959        H965   1.105       .  S
C962        H966   1.105       .  S
C962        H967   1.106   1_556  S
C962        H968   1.111       .  S
C969        C970   1.401       .  A
C969        C974   1.397       .  A
C969        H976   1.085       .  S
C970        C971   1.413       .  A
C971        C978   1.506       .  S
C971        C972   1.408       .  A
C972        C973   1.408       .  A
C972        H977   1.084       .  S
C973        C974   1.418       .  A
C974        C975   1.510       .  S
C975        H979   1.111       .  S
C975        H980   1.110       .  S
C975        H981   1.110       .  S
C978        H982   1.109       .  S
C978        H983   1.108       .  S
C978        H984   1.111       .  S
C985        C986   1.407       .  A
C985        C990   1.405       .  A
C985        H992   1.084       .  S
C986        C987   1.419       .  A
C987        C988   1.403       .  A
C988        C989   1.398       .  A
C988        H993   1.084       .  S
C989        C990   1.408       .  A
C990        C991   1.505       .  S
C991        H995   1.111       .  S
C991        H996   1.111       .  S
C991        H997   1.110       .  S
C994        H998   1.110       .  S
C994        H999   1.110   1_455  S
C994       H1000   1.111       .  S
C1001      C1002   1.406       .  A
C1001      C1006   1.406       .  A
C1001      H1008   1.083       .  S
C1002      C1003   1.416       .  A
C1003      C1004   1.403       .  A
C1004      C1005   1.399       .  A
C1004      H1009   1.084       .  S
C1005      C1006   1.408       .  A
C1006      C1007   1.505       .  S
C1007      H1011   1.111       .  S
C1007      H1012   1.109       .  S
C1007      H1013   1.111       .  S
C1010      H1014   1.109       .  S
C1010      H1015   1.110       .  S
C1010      H1016   1.111       .  S
C1017      C1018   1.404       .  A
C1017      C1022   1.412       .  A
C1017      H1024   1.084       .  S
C1018      C1019   1.411       .  A
C1019      C1026   1.504       .  S
C1019      C1020   1.398       .  A
C1020      C1021   1.404       .  A
C1020      H1025   1.084       .  S
C1021      C1022   1.419       .  A
C1022      C1023   1.505       .  S
C1023      H1027   1.111       .  S
C1023      H1029   1.110       .  S
C1026      H1030   1.105       .  S
C1026      H1031   1.108       .  S
C1026      H1032   1.111       .  S
C1033      C1038   1.397       .  A
C1033      H1040   1.081   1_655  S
C1034      C1035   1.416       .  A
C1035      C1042   1.508       .  S
C1036      C1037   1.403       .  A
C1036      H1041   1.082       .  S
C1037      C1038   1.417       .  A
C1038      C1039   1.510       .  S
C1039      H1043   1.111       .  S
C1039      H1044   1.110       .  S
C1039      H1045   1.104       .  S
C1042      H1046   1.107       .  S
C1042      H1047   1.110       .  S
C1042      H1048   1.111       .  S
C1049      C1050   1.413       .  A
C1049      C1054   1.405       .  A
C1049      H1056   1.075       .  S
C1050      C1051   1.420       .  A
C1051      C1058   1.514       .  S
C1051      C1052   1.402       .  A
C1052      C1053   1.411       .  A
C1052      H1057   1.073       .  S
C1053      C1054   1.424       .  A
C1054      C1055   1.514       .  S
C1055      H1059   1.111       .  S
C1055      H1060   1.102       .  S
C1055      H1061   1.111       .  S
C1058      H1062   1.110       .  S
C1058      H1063   1.102       .  S
C1058      H1064   1.111       .  S
