geometry optimzed in LAMMPS
_audit_creation_date              2020-11-30 
_audit_creation_method            'lammps2cif' 
_symmetry_space_group_name_H-M    'P1' 
_symmetry_Int_Tables_number       1 
_symmetry_cell_setting            triclinic 
loop_ 
_symmetry_equiv_pos_as_xyz 
  x,y,z 
_cell_length_a                    44.2221292 
_cell_length_b                    44.07971067089272 
_cell_length_c                    44.109954156487085 
_cell_angle_alpha                 89.69968190867901 
_cell_angle_beta                  90.05348467984871 
_cell_angle_gamma                 89.97442623445225 
loop_ 
_atom_site_label 
_atom_site_type_symbol 
_atom_site_fract_x 
_atom_site_fract_y 
_atom_site_fract_z 
_atom_site_charge 
Zn1        Zn  0.27197914  0.75412285  0.52118789     1.49700
Zn2        Zn  0.21044506  0.72207405  0.50596744     1.49400
Zn3        Zn  0.25686725  0.72692936  0.45570064     1.49100
Zn4        Zn  0.26739472  0.68125587  0.50974696     1.49500
O5          O  0.25275625  0.72136311  0.49855666    -1.84100
O6          O  0.23923522  0.77986190  0.54190100    -0.74800
O7          O  0.18634605  0.70751117  0.47034443    -0.74600
O8          O  0.27276205  0.76873887  0.44623223    -0.74100
O9          O  0.19718192  0.76245622  0.52027158    -0.74800
O10         O  0.29264222  0.78226281  0.49083788    -0.74400
O11         O  0.21907267  0.71395168  0.43283547    -0.75000
O12         O  0.28743610  0.65997023  0.47362090    -0.74400
O13         O  0.20198894  0.69409633  0.53963858    -0.75100
O14         O  0.28796694  0.69839511  0.44077031    -0.74500
O15         O  0.23590428  0.65738024  0.53469240    -0.75000
O16         O  0.30012735  0.68696944  0.53962411    -0.74900
O17         O  0.30316729  0.73593494  0.55171208    -0.74700
C18         C  0.21069896  0.78131544  0.53727089     0.77100
C19         C  0.19337639  0.70511119  0.44251323     0.77600
C20         C  0.28925873  0.78616006  0.46230349     0.76600
C21         C  0.29609348  0.67182463  0.44853410     0.76900
C22         C  0.21263762  0.66856227  0.54772604     0.78100
C23         C  0.31157223  0.70828454  0.55511891     0.77100
Zn24       Zn  0.74229540  0.67868657  0.00879486     1.49700
Zn25       Zn  0.79667216  0.72373776  0.00437344     1.49400
Zn26       Zn  0.75009445  0.72646197  0.95542044     1.49100
Zn27       Zn  0.73248629  0.75068393  0.02026919     1.49500
O28         O  0.75447400  0.71961042  0.99791578    -1.84100
O29         O  0.77644469  0.65714395  0.03272568    -0.74800
O30         O  0.82149576  0.71254351  0.96798414    -0.74600
O31         O  0.72182095  0.69631250  0.94007139    -0.74100
O32         O  0.80897021  0.69525541  0.03646471    -0.74800
O33         O  0.72515871  0.65671732  0.97130400    -0.74400
O34         O  0.78770719  0.71784949  0.93132628    -0.75000
O35         O  0.70878616  0.77673575  0.99040677    -0.74400
O36         O  0.80564399  0.76515817  0.01862785    -0.75100
O37         O  0.73137778  0.76667325  0.94674289    -0.74500
O38         O  0.76263583  0.77994322  0.03976853    -0.75000
O39         O  0.70274028  0.73087258  0.05055578    -0.74900
O40         O  0.70738400  0.68213702  0.03785963    -0.74700
C41         C  0.80033804  0.66884872  0.04419535     0.77100
C42         C  0.81409315  0.71061498  0.94022620     0.77600
C43         C  0.71537471  0.66910382  0.94684310     0.76600
C44         C  0.71272644  0.78217409  0.96221298     0.76900
C45         C  0.79079678  0.78398717  0.03444295     0.78100
C46         C  0.69456720  0.70311120  0.05294009     0.77100
Zn47       Zn  0.21543198  0.51101815  0.29353052     1.49700
Zn48       Zn  0.22340772  0.46007225  0.24882122     1.49400
Zn49       Zn  0.17393135  0.50926503  0.23812627     1.49100
Zn50       Zn  0.24381491  0.52726063  0.23007464     1.49500
O51         O  0.21449399  0.50243579  0.25166372    -1.84100
O52         O  0.20110904  0.47467788  0.31794733    -0.74800
O53         O  0.19701191  0.44238791  0.21709167    -0.74600
O54         O  0.14995216  0.53417929  0.26896177    -0.74100
O55         O  0.21246918  0.43642709  0.28744344    -0.74800
O56         O  0.18726534  0.54487622  0.30102593    -0.74400
O57         O  0.15519146  0.47015312  0.22234829    -0.75000
O58         O  0.22212202  0.55553079  0.19815967    -0.74400
O59         O  0.26543862  0.45469783  0.23342108    -0.75100
O60         O  0.17586308  0.53666540  0.20259480    -0.74500
O61         O  0.27142157  0.49829350  0.20811842    -0.75000
O62         O  0.27122596  0.54832438  0.26172084    -0.74900
O63         O  0.25618154  0.52630467  0.30493513    -0.74700
C64         C  0.20163503  0.44634889  0.31230109     0.77100
C65         C  0.16924445  0.44725947  0.21159256     0.77600
C66         C  0.16102458  0.54995610  0.29052442     0.76600
C67         C  0.19439117  0.55448214  0.18956227     0.76900
C68         C  0.27906496  0.47086726  0.21360258     0.78100
C69         C  0.27437586  0.54330723  0.29022397     0.77100
Zn70       Zn  0.49321185  0.21297143  0.21666639     1.49700
Zn71       Zn  0.54202167  0.26314923  0.22083750     1.49400
Zn72       Zn  0.49221140  0.26603739  0.17091856     1.49100
Zn73       Zn  0.47535041  0.27699589  0.24159514     1.49500
O74         O  0.50013191  0.25546543  0.21270499    -1.84100
O75         O  0.53104338  0.19088054  0.20583182    -0.74800
O76         O  0.55674828  0.29499170  0.19186005    -0.74600
O77         O  0.47245573  0.23134368  0.14788832    -0.74100
O78         O  0.56702103  0.22586932  0.21081013    -0.74800
O79         O  0.46305375  0.19941575  0.18587830    -0.74400
O80         O  0.52914950  0.28511272  0.15081288    -0.75000
O81         O  0.44689444  0.30576578  0.21883178    -0.74400
O82         O  0.54743626  0.27968355  0.26315079    -0.75100
O83         O  0.46098045  0.29831847  0.17085009    -0.74500
O84         O  0.50226088  0.30103116  0.27000299    -0.75000
O85         O  0.45351076  0.24644557  0.26903976    -0.74900
O86         O  0.47699243  0.20313342  0.25803073    -0.74700
C87         C  0.55842342  0.19933430  0.20334933     0.77100
C88         C  0.55105425  0.29878253  0.16379827     0.77600
C89         C  0.45913468  0.20790034  0.15853657     0.76600
C90         C  0.44487364  0.31174016  0.19049842     0.76900
C91         C  0.52981784  0.29729657  0.27777216     0.78100
C92         C  0.45908888  0.21849202  0.27464439     0.77100
Zn93       Zn  0.25841822  0.17827016  0.49823486     1.49700
Zn94       Zn  0.20856484  0.22483900  0.49591882     1.49400
Zn95       Zn  0.24917124  0.22807961  0.54832850     1.49100
Zn96       Zn  0.27189460  0.24887457  0.48192432     1.49500
O97         O  0.24919429  0.21994816  0.50610977    -1.84100
O98         O  0.22346665  0.15858641  0.47451053    -0.74800
O99         O  0.18130354  0.20821714  0.52775421    -0.74600
O100        O  0.27607796  0.19754617  0.56717919    -0.74100
O101        O  0.19999034  0.20067573  0.46037211    -0.74800
O102        O  0.27284935  0.15714795  0.53736946    -0.74400
O103        O  0.20826848  0.21903039  0.56863217    -0.75000
O104        O  0.29272872  0.27740603  0.51116314    -0.74400
O105        O  0.20004440  0.26717506  0.48491717    -0.75100
O106        O  0.26794086  0.26952581  0.55458102    -0.74500
O107        O  0.24196219  0.27642687  0.45836669    -0.75000
O108        O  0.30257747  0.22526952  0.45460921    -0.74900
O109        O  0.29340525  0.17792055  0.46960466    -0.74700
C110        C  0.20426493  0.17247292  0.45761951     0.77100
C111        C  0.18464204  0.20795812  0.55628123     0.77600
C112        C  0.28188011  0.16982873  0.56183347     0.76600
C113        C  0.28678710  0.28476205  0.53851874     0.76900
C114        C  0.21445735  0.28248500  0.46515298     0.78100
C115        C  0.30808582  0.19667514  0.45323559     0.77100
Zn116      Zn  0.72580814  0.45543218  0.25499772     1.49700
Zn117      Zn  0.72876362  0.50566064  0.20668838     1.49400
Zn118      Zn  0.67908960  0.50836082  0.25692575     1.49100
Zn119      Zn  0.74969033  0.52118967  0.27313405     1.49500
O120        O  0.72093410  0.49812086  0.24878615    -1.84100
O121        O  0.71906816  0.43278487  0.21581888    -0.74800
O122        O  0.70085214  0.53803232  0.19261471    -0.74600
O123        O  0.65548330  0.47218401  0.27500395    -0.74100
O124        O  0.71911262  0.46910651  0.18094436    -0.74800
O125        O  0.69360458  0.44008120  0.28311803    -0.74400
O126        O  0.66001430  0.53059130  0.22089535    -0.75000
O127        O  0.72667175  0.55008421  0.30185494    -0.74400
O128        O  0.77026917  0.52252481  0.20048516    -0.75100
O129        O  0.67908003  0.53987220  0.28899764    -0.74500
O130        O  0.77860061  0.54466932  0.24512486    -0.75000
O131        O  0.77640877  0.49160477  0.29626114    -0.74900
O132        O  0.76582577  0.44725062  0.27468945    -0.74700
C133        C  0.71469901  0.44155774  0.18858686     0.77100
C134        C  0.67357889  0.54421838  0.19913688     0.77600
C135        C  0.66617622  0.44790042  0.28689040     0.76600
C136        C  0.69820462  0.55457772  0.30467356     0.76900
C137        C  0.78514702  0.54069306  0.21720105     0.78100
C138        C  0.78198186  0.46346123  0.29223294     0.77100
Zn139      Zn  0.99414803  0.20465423  0.27987457     1.49700
Zn140      Zn  0.99346953  0.25885670  0.32564273     1.49400
Zn141      Zn  0.04455480  0.25023253  0.27617371     1.49100
Zn142      Zn  0.97700895  0.26901993  0.25594484     1.49500
O143        O  0.00205516  0.24660337  0.28462668    -1.84100
O144        O  0.96249820  0.19333596  0.30900796    -0.74800
O145        O  0.03109615  0.27837985  0.34489276    -0.74600
O146        O  0.06820578  0.21110444  0.28549814    -0.74100
O147        O  0.96908429  0.22541465  0.34736386    -0.74800
O148        O  0.03029573  0.17879394  0.28979659    -0.74400
O149        O  0.06090118  0.28152485  0.30433712    -0.75000
O150        O  0.00533117  0.28962788  0.22719969    -0.74400
O151        O  0.96429007  0.29307462  0.32488191    -0.75100
O152        O  0.04983552  0.26641807  0.23363788    -0.74500
O153        O  0.94980894  0.30093159  0.27729572    -0.75000
O154        O  0.95350088  0.23986141  0.22872168    -0.74900
O155        O  0.97749752  0.19672608  0.23880296    -0.74700
C156        C  0.95579146  0.20257895  0.33537473     0.77100
C157        C  0.05454802  0.28897347  0.33143164     0.77600
C158        C  0.05838565  0.18459343  0.29187540     0.76600
C159        C  0.03254034  0.28456219  0.21907204     0.76900
C160        C  0.94850530  0.30745716  0.30551314     0.78100
C161        C  0.95912612  0.21212122  0.22258567     0.77100
Zn162      Zn  0.77743905  0.99820571  0.29440861     1.49700
Zn163      Zn  0.75331525  0.98336647  0.23099810     1.49400
Zn164      Zn  0.77775338  0.05003944  0.24912617     1.49100
Zn165      Zn  0.82469954  0.99696640  0.24361776     1.49500
O166        O  0.78326465  0.00694650  0.25304064    -1.84100
O167        O  0.73515799  0.98642158  0.30288275    -0.74800
O168        O  0.72829551  0.01334388  0.20673931    -0.74600
O169        O  0.78531239  0.07253141  0.28863356    -0.74100
O170        O  0.72258604  0.96334338  0.26013910    -0.74800
O171        O  0.79047077  0.03298269  0.31928634    -0.74400
O172        O  0.73848941  0.05822254  0.22814083    -0.75000
O173        O  0.84713046  0.03349952  0.22524943    -0.74400
O174        O  0.77529526  0.95345319  0.20238093    -0.75100
O175        O  0.80936136  0.06660318  0.22189414    -0.74500
O176        O  0.82353498  0.96601515  0.21073533    -0.75000
O177        O  0.84523220  0.97637983  0.27985345    -0.74900
O178        O  0.80418584  0.96454451  0.30671929    -0.74700
C179        C  0.71705736  0.96987788  0.28781937     0.77100
C180        C  0.72349151  0.04173109  0.20981407     0.77600
C181        C  0.79300375  0.06124189  0.31415708     0.76600
C182        C  0.83635316  0.05882780  0.21593601     0.76900
C183        C  0.80355994  0.95085418  0.19654986     0.78100
C184        C  0.83215401  0.96149698  0.30104627     0.77100
Zn185      Zn  0.70272307  0.78211019  0.48929470     1.49700
Zn186      Zn  0.74981639  0.78110487  0.53922776     1.49400
Zn187      Zn  0.76677377  0.75930483  0.47309724     1.49100
Zn188      Zn  0.75273707  0.82917598  0.48800801     1.49500
O189        O  0.74413286  0.78772730  0.49705623    -1.84100
O190        O  0.67794617  0.79542317  0.52434387    -0.74800
O191        O  0.76571608  0.73850821  0.54648008    -0.74600
O192        O  0.73712127  0.73206189  0.45046841    -0.74100
O193        O  0.71138424  0.79300533  0.56202984    -0.74800
O194        O  0.69519919  0.74004168  0.47700952    -0.74400
O195        O  0.78833684  0.73093281  0.50194846    -0.75000
O196        O  0.78695533  0.82906298  0.45986224    -0.74400
O197        O  0.78171106  0.81017344  0.55273372    -0.75100
O198        O  0.79733887  0.78204123  0.44560109    -0.74500
O199        O  0.76935492  0.85103133  0.52532622    -0.75000
O200        O  0.71902797  0.84856364  0.46267616    -0.74900
O201        O  0.69059402  0.80782895  0.45478412    -0.74700
C202        C  0.68506614  0.79942084  0.55191480     0.77100
C203        C  0.78358790  0.72337752  0.52953441     0.77600
C204        C  0.70996463  0.72491285  0.45747181     0.76600
C205        C  0.80257122  0.81060695  0.44445847     0.76900
C206        C  0.78423812  0.83835640  0.54684657     0.78100
C207        C  0.69797972  0.83489224  0.44827733     0.77100
C208        C  0.89742620  0.86672099  0.36848338    -0.02500
C209        C  0.86317261  0.13392330  0.40184626    -0.02500
C210        C  0.86103110  0.89852386  0.63725669    -0.02500
C211        C  0.13578746  0.10352396  0.36608939    -0.02500
C212        C  0.09947974  0.13825633  0.63257620    -0.02500
C213        C  0.13877969  0.87361365  0.60239571    -0.02500
Zn214      Zn  0.00564610  0.04082723  0.49243740     1.49700
Zn215      Zn  0.00836722  0.98998981  0.54218965     1.49400
Zn216      Zn  0.95590720  0.98907279  0.49298909     1.49100
Zn217      Zn  0.02603364  0.97445281  0.47244862     1.49500
O218        O  0.99898585  0.99805134  0.49979410    -1.84100
O219        O  0.02417328  0.06292371  0.52733547    -0.74800
O220        O  0.97289063  0.97138040  0.56481897    -0.74600
O221        O  0.93211100  0.02600567  0.47760347    -0.74100
O222        O  0.02346668  0.02772464  0.56318649    -0.74800
O223        O  0.96760466  0.06135125  0.48064355    -0.74400
O224        O  0.93562527  0.97274367  0.53102057    -0.75000
O225        O  0.00068499  0.94584225  0.44690760    -0.74400
O226        O  0.04288697  0.96079398  0.54478957    -0.75100
O227        O  0.95349429  0.95590894  0.46184026    -0.74500
O228        O  0.05618092  0.94945847  0.49748700    -0.75000
O229        O  0.05054737  0.00182946  0.44359036    -0.74900
O230        O  0.03434891  0.04675500  0.45837188    -0.74700
C231        C  0.03019937  0.05437902  0.55419141     0.77100
C232        C  0.94554929  0.96603185  0.55735754     0.77600
C233        C  0.94078460  0.05339550  0.47413701     0.76600
C234        C  0.97225572  0.94112516  0.44568080     0.76900
C235        C  0.05974026  0.94685616  0.52610801     0.78100
C236        C  0.05094073  0.03067175  0.44127400     0.77100
Zn237      Zn  0.79071752  0.28809601  0.48871772     1.49700
Zn238      Zn  0.72841249  0.25886511  0.47509025     1.49400
Zn239      Zn  0.74717938  0.28199332  0.54168307     1.49100
Zn240      Zn  0.73543809  0.33043610  0.49003236     1.49500
O241        O  0.74924985  0.28977442  0.49867035    -1.84100
O242        O  0.80226698  0.24726371  0.47448212    -0.74800
O243        O  0.70697744  0.23129631  0.50526907    -0.74600
O244        O  0.78683753  0.29101039  0.56367849    -0.74100
O245        O  0.75934614  0.23056516  0.45479983    -0.74800
O246        O  0.81608662  0.29940120  0.52406036    -0.74400
O247        O  0.73121880  0.24012958  0.54869734    -0.75000
O248        O  0.71499398  0.34864653  0.52749564    -0.74400
O249        O  0.69761639  0.27904776  0.44519372    -0.75100
O250        O  0.71681529  0.30988851  0.55989434    -0.74500
O251        O  0.70238600  0.32722332  0.45957103    -0.75000
O252        O  0.76860366  0.35576246  0.46897504    -0.74900
O253        O  0.79940600  0.31787371  0.45629220    -0.74700
C254        C  0.78771064  0.22743877  0.45958105     0.77100
C255        C  0.71268160  0.22463726  0.53296591     0.77600
C256        C  0.81207370  0.29950129  0.55252856     0.76600
C257        C  0.70716577  0.33608247  0.55249780     0.76900
C258        C  0.68963834  0.30698488  0.44356409     0.78100
C259        C  0.79066254  0.34519024  0.45351505     0.77100
Zn260      Zn  0.04211030  0.75591614  0.72060281     1.49700
Zn261      Zn  0.97902258  0.77721034  0.74693800     1.49400
Zn262      Zn  0.98821380  0.76645669  0.67495157     1.49100
Zn263      Zn  0.99011411  0.71232897  0.72009127     1.49500
O264        O  0.99932822  0.75425447  0.71553595    -1.84100
O265        O  0.05263048  0.77071049  0.76226438    -0.74800
O266        O  0.94902324  0.80830894  0.72718274    -0.74600
O267        O  0.02536600  0.78601419  0.65344862    -0.74100
O268        O  0.01108297  0.79677518  0.77399866    -0.74800
O269        O  0.05812120  0.78607477  0.69184762    -0.74400
O270        O  0.95691427  0.79894135  0.67817508    -0.75000
O271        O  0.95470827  0.70283508  0.69449735    -0.74400
O272        O  0.95784759  0.74712275  0.77534717    -0.75100
O273        O  0.96443961  0.73183436  0.65417863    -0.74500
O274        O  0.97967505  0.70313048  0.76314949    -0.75000
O275        O  0.02342818  0.68582252  0.70403367    -0.74900
O276        O  0.06262239  0.71698284  0.70765869    -0.74700
C277        C  0.03869081  0.78957142  0.77908305     0.77100
C278        C  0.94311410  0.81310347  0.69906722     0.77600
C279        C  0.05065200  0.79416367  0.66520078     0.76600
C280        C  0.94980397  0.71018058  0.66704684     0.76900
C281        C  0.96348798  0.71914297  0.78076345     0.78100
C282        C  0.05129159  0.69158452  0.70009648     0.77100
C283        C  0.13486291  0.60907619  0.63803429    -0.02500
C284        C  0.13551262  0.36904950  0.40060497    -0.02500
C285        C  0.86245766  0.63938406  0.59532061    -0.02500
C286        C  0.87350288  0.40064571  0.36606510    -0.02500
C287        C  0.89563365  0.36682362  0.63122848    -0.02500
C288        C  0.10353940  0.64019840  0.36781681    -0.02500
Zn289      Zn  0.02918496  0.47765048  0.53084336     1.49700
Zn290      Zn  0.96135120  0.49462110  0.50469995     1.49400
Zn291      Zn  0.00863333  0.54591660  0.51035120     1.49100
Zn292      Zn  0.01813979  0.49600020  0.46024703     1.49500
O293        O  0.00466557  0.50297000  0.50183663    -1.84100
O294        O  0.00065371  0.45036466  0.55642434    -0.74800
O295        O  0.93459282  0.53062177  0.51767943    -0.74600
O296        O  0.03807244  0.55157064  0.54353673    -0.74100
O297        O  0.95638674  0.46350971  0.53672188    -0.74800
O298        O  0.05347027  0.50609743  0.55940442    -0.74400
O299        O  0.97021207  0.56498178  0.52394488    -0.75000
O300        O  0.03408807  0.53435099  0.44115414    -0.74400
O301        O  0.94608540  0.47545505  0.46622083    -0.75100
O302        O  0.02480397  0.56998639  0.47536772    -0.74500
O303        O  0.98514279  0.47732308  0.43440665    -0.75000
O304        O  0.05251730  0.46647427  0.45977233    -0.74900
O305        O  0.05958144  0.45024727  0.50711438    -0.74700
C306        C  0.97185799  0.44777454  0.55537521     0.77100
C307        C  0.94263991  0.55710103  0.52586345     0.77600
C308        C  0.05419428  0.53510205  0.56088193     0.76600
C309        C  0.03521492  0.56180651  0.44989181     0.76900
C310        C  0.95807630  0.46968382  0.44064202     0.78100
C311        C  0.06628299  0.44973051  0.47886755     0.77100
C312        C  0.64240010  0.37242746  0.10048259    -0.02500
C313        C  0.60747792  0.63945936  0.13107244    -0.02500
C314        C  0.40133395  0.36764112  0.86982235    -0.02500
C315        C  0.35829635  0.63654511  0.90257052    -0.02500
C316        C  0.63299613  0.60224310  0.86602022    -0.02500
C317        C  0.36419859  0.40370524  0.13721430    -0.02500
Zn318      Zn  0.45686572  0.49165701  0.99353445     1.49700
Zn319      Zn  0.52620093  0.47674878  0.97661406     1.49400
Zn320      Zn  0.50465380  0.54543990  0.99225945     1.49100
Zn321      Zn  0.50825035  0.49806319  0.04477658     1.49500
O322        O  0.49909399  0.50267716  0.00159329    -1.84100
O323        O  0.45508379  0.45752402  0.96335370    -0.74800
O324        O  0.55120289  0.50295951  0.94791043    -0.74600
O325        O  0.46618966  0.56378430  0.97702668    -0.74100
O326        O  0.50255551  0.44650027  0.95100614    -0.74800
O327        O  0.43188732  0.52700746  0.97668029    -0.74400
O328        O  0.53510229  0.54943994  0.95929868    -0.75000
O329        O  0.52411878  0.53649680  0.06430540    -0.74400
O330        O  0.55495224  0.45249288  0.00395944    -0.75100
O331        O  0.52188703  0.57023435  0.02687162    -0.74500
O332        O  0.54154600  0.46779624  0.04993784    -0.75000
O333        O  0.47258703  0.48130094  0.06758705    -0.74900
O334        O  0.43797785  0.47481803  0.03138729    -0.74700
C335        C  0.47424053  0.44168134  0.94881003     0.77100
C336        C  0.55194862  0.53165456  0.94425685     0.77600
C337        C  0.43971331  0.55426941  0.97088116     0.76600
C338        C  0.52907329  0.56300725  0.05388333     0.76900
C339        C  0.55804858  0.45168397  0.03272949     0.78100
C340        C  0.44692061  0.47180183  0.05868500     0.77100
Zn341      Zn  0.28094084  0.49784409  0.79356300     1.49700
Zn342      Zn  0.25994471  0.48585895  0.72803764     1.49400
Zn343      Zn  0.28122720  0.55184520  0.75015005     1.49100
Zn344      Zn  0.32983411  0.50045566  0.74518260     1.49500
O345        O  0.28791662  0.50904414  0.75278982    -1.84100
O346        O  0.23892622  0.48483780  0.79992923    -0.74800
O347        O  0.23267949  0.51533983  0.70583267    -0.74600
O348        O  0.28632535  0.57184729  0.79136188    -0.74100
O349        O  0.23109805  0.46162857  0.75580894    -0.74800
O350        O  0.29200739  0.53126561  0.82099848    -0.74400
O351        O  0.24132862  0.55907532  0.72932104    -0.75000
O352        O  0.35205318  0.53786116  0.72964474    -0.74400
O353        O  0.28406714  0.45973161  0.69746909    -0.75100
O354        O  0.31375074  0.57017392  0.72417909    -0.74500
O355        O  0.33094104  0.47201700  0.71038017    -0.75000
O356        O  0.34953021  0.47809109  0.78104810    -0.74900
O357        O  0.30766047  0.46363649  0.80503664    -0.74700
C358        C  0.22398570  0.46669251  0.78345329     0.77100
C359        C  0.22612076  0.54310168  0.71058358     0.77600
C360        C  0.29318835  0.55969294  0.81675132     0.76600
C361        C  0.34117144  0.56272595  0.71940231     0.76900
C362        C  0.31271298  0.45760329  0.69348105     0.78100
C363        C  0.33594484  0.46152733  0.80062582     0.77100
C364        C  0.63731677  0.63412767  0.39284285    -0.02500
C365        C  0.63505185  0.40639418  0.63951083    -0.02500
C366        C  0.40019437  0.64650577  0.63331326    -0.02500
C367        C  0.37078895  0.60212750  0.36250707    -0.02500
C368        C  0.59658668  0.36659628  0.36820959    -0.02500
C369        C  0.36313051  0.37444504  0.60121823    -0.02500
Zn370      Zn  0.47518173  0.48011677  0.47749345     1.49700
Zn371      Zn  0.49251000  0.50552368  0.54448250     1.49400
Zn372      Zn  0.54411394  0.49658037  0.49560243     1.49100
Zn373      Zn  0.49522703  0.54997005  0.48750877     1.49500
O374        O  0.50158208  0.50802582  0.50117675    -1.84100
O375        O  0.44720210  0.45650762  0.50532560    -0.74800
O376        O  0.52882168  0.49059947  0.56937915    -0.74600
O377        O  0.54735975  0.46332723  0.46474694    -0.74100
O378        O  0.46000036  0.47442263  0.55066422    -0.74800
O379        O  0.50032444  0.45043363  0.45237380    -0.74400
O380        O  0.56409396  0.48233925  0.53463627    -0.75000
O381        O  0.53381431  0.56689784  0.46961245    -0.74400
O382        O  0.47540370  0.54528120  0.56038240    -0.75100
O383        O  0.56810154  0.53058315  0.47712469    -0.74500
O384        O  0.47754591  0.57701624  0.52100008    -0.75000
O385        O  0.46550058  0.55047264  0.45292485    -0.74900
O386        O  0.44899082  0.50316794  0.44739457    -0.74700
C387        C  0.44436817  0.45684158  0.53405433     0.77100
C388        C  0.55512887  0.48114750  0.56209063     0.77600
C389        C  0.52885285  0.44757845  0.44932206     0.76600
C390        C  0.56046369  0.55631842  0.46649172     0.76900
C391        C  0.47028543  0.57120115  0.54843924     0.78100
C392        C  0.44877074  0.53105274  0.43977249     0.77100
Zn393      Zn  0.50743305  0.79615361  0.78594916     1.49700
Zn394      Zn  0.45579250  0.75247666  0.78233398     1.49400
Zn395      Zn  0.52135163  0.73207436  0.76143673     1.49100
Zn396      Zn  0.50597988  0.74348947  0.83200264     1.49500
O397        O  0.49794700  0.75467945  0.79054547    -1.84100
O398        O  0.47350335  0.82237407  0.80006328    -0.74800
O399        O  0.44870998  0.73642002  0.73992054    -0.74600
O400        O  0.54475291  0.76220054  0.73445599    -0.74100
O401        O  0.43436414  0.79167923  0.79370429    -0.74800
O402        O  0.51940952  0.80496137  0.74341577    -0.74400
O403        O  0.49212550  0.71170247  0.73244963    -0.75000
O404        O  0.53303627  0.70726723  0.83119369    -0.74400
O405        O  0.43839913  0.72306252  0.81117038    -0.75100
O406        O  0.54788974  0.70000200  0.78373359    -0.74500
O407        O  0.46655972  0.72895293  0.85256220    -0.75000
O408        O  0.53225324  0.77625042  0.85277909    -0.74900
O409        O  0.54216453  0.80509575  0.81250094    -0.74700
C410        C  0.44538327  0.81699471  0.80217183     0.77100
C411        C  0.46492636  0.71788014  0.72474998     0.77600
C412        C  0.53785655  0.78962262  0.72752892     0.76600
C413        C  0.54878065  0.69277459  0.81191387     0.76900
C414        C  0.44296615  0.71848552  0.83930268     0.78100
C415        C  0.54792071  0.79691379  0.83956414     0.77100
Zn416      Zn  0.25576337  0.98546413  0.26558134     1.49700
Zn417      Zn  0.27673325  0.05342813  0.24914066     1.49400
Zn418      Zn  0.32559852  0.00228051  0.25370933     1.49100
Zn419      Zn  0.27852680  0.00527457  0.20214411     1.49500
O420        O  0.28429215  0.01127097  0.24409326    -1.84100
O421        O  0.22769727  0.01298185  0.28876986    -0.74800
O422        O  0.30706988  0.06947361  0.27789499    -0.74600
O423        O  0.32556146  0.97129094  0.28720736    -0.74100
O424        O  0.23603005  0.05882108  0.26826877    -0.74800
O425        O  0.27845086  0.95594714  0.29514670    -0.74400
O426        O  0.34712153  0.04003822  0.27094231    -0.75000
O427        O  0.30479245  0.97222879  0.18906094    -0.74400
O428        O  0.28439789  0.07806472  0.21069802    -0.75100
O429        O  0.34520430  0.98082354  0.21763005    -0.74500
O430        O  0.29057549  0.04121438  0.17743387    -0.75000
O431        O  0.23662597  0.99298758  0.19391595    -0.74900
O432        O  0.22768117  0.96505141  0.23498098    -0.74700
C433        C  0.22121338  0.04103818  0.28570204     0.77100
C434        C  0.33493404  0.06375775  0.28230754     0.77600
C435        C  0.30676936  0.95442768  0.30131341     0.76600
C436        C  0.33222916  0.96707793  0.19563927     0.76900
C437        C  0.29162300  0.06913031  0.18423458     0.78100
C438        C  0.22060458  0.97371765  0.20813569     0.77100
Zn439      Zn  0.20631794  0.78922610  0.01297810     1.49700
Zn440      Zn  0.26358001  0.83178701  0.01454236     1.49400
Zn441      Zn  0.27033028  0.76051587  0.02681387     1.49100
Zn442      Zn  0.25260019  0.78609918  0.96113331     1.49500
O443        O  0.24875845  0.79193260  0.00406419    -1.84100
O444        O  0.19671690  0.81920719  0.04558852    -0.74800
O445        O  0.29954684  0.82740078  0.04176057    -0.74600
O446        O  0.24048251  0.73278961  0.04814898    -0.74100
O447        O  0.23227700  0.85457262  0.03903281    -0.74800
O448        O  0.19657634  0.74723106  0.02777993    -0.74400
O449        O  0.30188666  0.77879082  0.05568293    -0.75000
O450        O  0.27160282  0.74562979  0.95295058    -0.74400
O451        O  0.27849463  0.85485403  0.97762365    -0.75100
O452        O  0.29138876  0.73270839  0.99747692    -0.74500
O453        O  0.27976407  0.81780673  0.94376432    -0.75000
O454        O  0.21305589  0.79304568  0.93902258    -0.74900
O455        O  0.18046460  0.80008902  0.97646765    -0.74700
C456        C  0.20814789  0.84497994  0.05166738     0.77100
C457        C  0.31152291  0.80606639  0.05713220     0.77600
C458        C  0.21232874  0.72862093  0.04336203     0.76600
C459        C  0.28813204  0.72817044  0.96916823     0.76900
C460        C  0.28631620  0.84471084  0.95176308     0.78100
C461        C  0.18677565  0.80038863  0.94829501     0.77100
C462        C  0.36979606  0.90530841  0.86731513    -0.02500
C463        C  0.63680541  0.87422847  0.90129616    -0.02500
C464        C  0.39810499  0.86880369  0.13452424    -0.02500
C465        C  0.36354194  0.13907064  0.09668479    -0.02500
C466        C  0.59511128  0.14179285  0.86683659    -0.02500
C467        C  0.63389408  0.11049088  0.13981923    -0.02500
Zn468      Zn  0.50061024  0.96272603  0.99790231     1.49700
Zn469      Zn  0.54665577  0.01585903  0.00297961     1.49400
Zn470      Zn  0.47829479  0.02939957  0.97831077     1.49100
Zn471      Zn  0.49335307  0.01187858  0.04883318     1.49500
O472        O  0.50419648  0.00536109  0.00672277    -1.84100
O473        O  0.53892961  0.94622749  0.98145212    -0.74800
O474        O  0.54942753  0.05097299  0.97590135    -0.74600
O475        O  0.45403506  0.00117686  0.94938307    -0.74100
O476        O  0.57207736  0.98393546  0.98272501    -0.74800
O477        O  0.47064768  0.95641988  0.96507390    -0.74400
O478        O  0.50514367  0.05857442  0.95349681    -0.75000
O479        O  0.46016745  0.04213281  0.05057836    -0.74400
O480        O  0.56595082  0.02766532  0.04201737    -0.75100
O481        O  0.44796619  0.05446215  0.00307740    -0.74500
O482        O  0.52809412  0.02692621  0.07471382    -0.75000
O483        O  0.47607505  0.97417401  0.06719108    -0.74900
O484        O  0.48475528  0.93832044  0.03294319    -0.74700
C485        C  0.56478075  0.95717928  0.97515535     0.77100
C486        C  0.53330064  0.06458818  0.95639005     0.77600
C487        C  0.45370362  0.97218384  0.94791446     0.76600
C488        C  0.44377362  0.05648688  0.03166568     0.76900
C489        C  0.55577889  0.03196872  0.06853108     0.78100
C490        C  0.47414407  0.94689438  0.05825594     0.77100
Zn491      Zn  0.99463760  0.79928403  0.21857731     1.49700
Zn492      Zn  0.97953140  0.73671901  0.24854186     1.49400
Zn493      Zn  0.99152496  0.74297023  0.17674866     1.49100
Zn494      Zn  0.04476643  0.75400470  0.22429988     1.49500
O495        O  0.00218287  0.75708358  0.21685700    -1.84100
O496        O  0.98129290  0.81087856  0.25940424    -0.74800
O497        O  0.94983298  0.70601364  0.23012435    -0.74600
O498        O  0.96370112  0.77476198  0.15512713    -0.74100
O499        O  0.95858934  0.76836102  0.27472649    -0.74800
O500        O  0.96097856  0.80947997  0.19131198    -0.74400
O501        O  0.96479692  0.70649665  0.18183038    -0.75000
O502        O  0.06110509  0.72532764  0.19508514    -0.74400
O503        O  0.00906921  0.71435341  0.27577794    -0.75100
O504        O  0.03031147  0.72743684  0.15527626    -0.74500
O505        O  0.05349547  0.73562233  0.26509779    -0.75000
O506        O  0.06795363  0.79228831  0.21377442    -0.74900
O507        O  0.02994447  0.82371392  0.20452326    -0.74700
C508        C  0.96360046  0.79678432  0.27723826     0.77100
C509        C  0.94872521  0.69553287  0.20318070     0.77600
C510        C  0.95196112  0.79893277  0.16617140     0.76600
C511        C  0.05499609  0.71857373  0.16790760     0.76900
C512        C  0.03731096  0.71750868  0.28086697     0.78100
C513        C  0.05797574  0.81752308  0.20378699     0.77100
Zn514      Zn  0.74967053  0.22707845  0.95105875     1.49700
Zn515      Zn  0.70451367  0.22724654  0.00191273     1.49400
Zn516      Zn  0.75598370  0.17881493  0.00305684     1.49100
Zn517      Zn  0.77035988  0.24970042  0.01562355     1.49500
O518        O  0.74622415  0.22054320  0.99354323    -1.84100
O519        O  0.71122920  0.21583139  0.92910613    -0.74800
O520        O  0.69299075  0.20018630  0.03609309    -0.74600
O521        O  0.77421773  0.15754082  0.96519432    -0.74100
O522        O  0.67823978  0.21421441  0.96686602    -0.74800
O523        O  0.77896126  0.19780655  0.93515990    -0.74400
O524        O  0.71986259  0.15876492  0.02515898    -0.75000
O525        O  0.80042488  0.22743463  0.04420206    -0.74400
O526        O  0.69803536  0.27017019  0.01505942    -0.75100
O527        O  0.78887399  0.17921405  0.03467311    -0.74500
O528        O  0.74204580  0.27756288  0.03879528    -0.75000
O529        O  0.79146545  0.27758801  0.98533530    -0.74900
O530        O  0.76700134  0.26820265  0.94202273    -0.74700
C531        C  0.68505177  0.20942148  0.93926879     0.77100
C532        C  0.69917076  0.17230623  0.04029488     0.77600
C533        C  0.78473513  0.17020099  0.94116462     0.76600
C534        C  0.80406427  0.19899508  0.04913263     0.76900
C535        C  0.71473851  0.28520182  0.03311858     0.78100
C536        C  0.78581543  0.28367647  0.95753191     0.77100
Zn537      Zn  0.21984389  0.01120492  0.71222916     1.49700
Zn538      Zn  0.22065946  0.96059939  0.75941036     1.49400
Zn539      Zn  0.24574039  0.02646076  0.77612213     1.49100
Zn540      Zn  0.17507477  0.01542223  0.76561463     1.49500
O541        O  0.21545708  0.00355138  0.75437524    -1.84100
O542        O  0.20455277  0.97574524  0.68777699    -0.74800
O543        O  0.26221365  0.95220970  0.77709650    -0.74600
O544        O  0.27342634  0.04754784  0.74576701    -0.74100
O545        O  0.20992704  0.93757444  0.72047674    -0.74800
O546        O  0.26200657  0.02407896  0.70256382    -0.74400
O547        O  0.27252623  0.99693098  0.79831815    -0.75000
O548        O  0.17752070  0.04594875  0.79859864    -0.74400
O549        O  0.18994701  0.94650584  0.78967429    -0.75100
O550        O  0.22618535  0.05651879  0.80594431    -0.74500
O551        O  0.15205750  0.97948708  0.78336688    -0.75000
O552        O  0.15466789  0.03927267  0.73167650    -0.74900
O553        O  0.19413308  0.04626290  0.70158157    -0.74700
C554        C  0.20169021  0.94777825  0.69461381     0.77100
C555        C  0.27822636  0.96883148  0.79456626     0.77600
C556        C  0.27853589  0.04214396  0.71779588     0.76600
C557        C  0.19822069  0.06072602  0.81197489     0.76900
C558        C  0.16286434  0.95498147  0.79456958     0.78100
C559        C  0.16764245  0.05337599  0.70988401     0.77100
C560        C  0.13741076  0.13980564  0.89953746    -0.02500
C561        C  0.12910346  0.90867756  0.13678145    -0.02500
C562        C  0.89574707  0.14131997  0.12825710    -0.02500
C563        C  0.86020901  0.87413350  0.10306683    -0.02500
C564        C  0.10002572  0.86466340  0.86946113    -0.02500
C565        C  0.86805184  0.10863715  0.85630667    -0.02500
Zn566      Zn  0.00749258  0.01150319  0.95378031     1.49700
Zn567      Zn  0.02258462  0.03278559  0.02345402     1.49400
Zn568      Zn  0.95456659  0.01347620  0.00248598     1.49100
Zn569      Zn  0.00319526  0.96410111  0.00644398     1.49500
O570        O  0.99742076  0.00618418  0.99667663    -1.84100
O571        O  0.04179804  0.04095021  0.95061012    -0.74800
O572        O  0.99538459  0.06402370  0.04499756    -0.74600
O573        O  0.93562431  0.02848178  0.96424556    -0.74100
O574        O  0.05314184  0.05682602  0.99713027    -0.74800
O575        O  0.97258594  0.02996244  0.93022597    -0.74400
O576        O  0.95029726  0.04792770  0.03034496    -0.75000
O577        O  0.96599727  0.94292551  0.01975113    -0.74400
O578        O  0.04509224  0.00636365  0.05583972    -0.75100
O579        O  0.93071027  0.97819274  0.02063298    -0.74500
O580        O  0.03018926  0.96080805  0.04125777    -0.75000
O581        O  0.02218619  0.94068058  0.97329475    -0.74900
O582        O  0.02210847  0.97245237  0.93419004    -0.74700
C583        C  0.05758395  0.05714412  0.96845584     0.77100
C584        C  0.96659413  0.06646009  0.04506159     0.77600
C585        C  0.94549479  0.03573880  0.93813994     0.76600
C586        C  0.93935615  0.95117644  0.02621476     0.76900
C587        C  0.04519753  0.97747110  0.05910801     0.78100
C588        C  0.02828368  0.94664824  0.94582113     0.77100
Zn589      Zn  0.20472711  0.28383874  0.99213020     1.49700
Zn590      Zn  0.25000895  0.28687901  0.04324715     1.49400
Zn591      Zn  0.27058172  0.26192435  0.97871664     1.49100
Zn592      Zn  0.25524736  0.33251974  0.98955690     1.49500
O593        O  0.24621887  0.29137362  0.00040996    -1.84100
O594        O  0.17863002  0.29676875  0.02698287    -0.74800
O595        O  0.26824963  0.24669320  0.05298604    -0.74600
O596        O  0.24259837  0.23270793  0.95637028    -0.74100
O597        O  0.21104640  0.29559673  0.06518529    -0.74800
O598        O  0.19884367  0.24044817  0.98035689    -0.74400
O599        O  0.29168996  0.23530958  0.00981802    -0.75000
O600        O  0.28973737  0.33143398  0.96059497    -0.74400
O601        O  0.27729576  0.31863083  0.05893232    -0.75100
O602        O  0.30153395  0.28355163  0.95054029    -0.74500
O603        O  0.27055618  0.35657984  0.02622593    -0.75000
O604        O  0.21982835  0.35101933  0.96619055    -0.74900
O605        O  0.19170171  0.31017414  0.95788470    -0.74700
C606        C  0.18480340  0.30126304  0.05476024     0.77100
C607        C  0.28661374  0.23039063  0.03793266     0.77600
C608        C  0.21548600  0.22485740  0.96275086     0.76600
C609        C  0.30601299  0.31204415  0.94683952     0.76900
C610        C  0.28090371  0.34625047  0.05132362     0.78100
C611        C  0.19795356  0.33783417  0.95252932     0.77100
Zn612      Zn  0.82801841  0.51696616  0.73836732     1.49700
Zn613      Zn  0.75708171  0.53278081  0.72937152     1.49400
Zn614      Zn  0.77858524  0.46548073  0.74664708     1.49100
Zn615      Zn  0.78383420  0.51533780  0.79400747     1.49500
O616        O  0.78692652  0.50813919  0.75145487    -1.84100
O617        O  0.82614004  0.54652014  0.70391450    -0.74800
O618        O  0.72792060  0.50455331  0.70770419    -0.74600
O619        O  0.80764780  0.44918084  0.71661873    -0.74100
O620        O  0.77814687  0.56061687  0.69763624    -0.74800
O621        O  0.84760950  0.47964075  0.71946656    -0.74400
O622        O  0.73770833  0.45930123  0.72848294    -0.75000
O623        O  0.78885062  0.47754719  0.81866697    -0.74400
O624        O  0.73015162  0.55525373  0.75935854    -0.75100
O625        O  0.78466634  0.44069518  0.78521993    -0.74500
O626        O  0.74439470  0.53446025  0.80330857    -0.75000
O627        O  0.81681624  0.54268746  0.80722230    -0.74900
O628        O  0.85232186  0.53784368  0.77193715    -0.74700
C629        C  0.80603921  0.56178164  0.68990963     0.77100
C630        C  0.72196764  0.47644728  0.71133203     0.77600
C631        C  0.83463094  0.45588112  0.70926376     0.76600
C632        C  0.78937503  0.44947130  0.81227193     0.76900
C633        C  0.72643233  0.55087963  0.78777457     0.78100
C634        C  0.84320883  0.54839009  0.79729126     0.77100
Zn635      Zn  0.98188630  0.23513880  0.75385198     1.49700
Zn636      Zn  0.99378431  0.25078383  0.82423857     1.49400
Zn637      Zn  0.04725880  0.25292699  0.77916704     1.49100
Zn638      Zn  0.99688896  0.30150704  0.77547214     1.49500
O639        O  0.00450593  0.25955776  0.78279058    -1.84100
O640        O  0.95610657  0.20266710  0.77621398    -0.74800
O641        O  0.02917890  0.23527769  0.84924404    -0.74600
O642        O  0.05649624  0.23347834  0.73936358    -0.74100
O643        O  0.96631807  0.21562458  0.82353193    -0.74800
O644        O  0.01182583  0.21403047  0.72694404    -0.74400
O645        O  0.05998403  0.22337669  0.81123812    -0.75000
O646        O  0.03426649  0.32583364  0.78302514    -0.74400
O647        O  0.96957370  0.28476592  0.84322091    -0.75100
O648        O  0.07089099  0.29177250  0.78671142    -0.74500
O649        O  0.96559213  0.31665855  0.80449930    -0.75000
O650        O  0.97955695  0.30802609  0.73432673    -0.74900
O651        O  0.95755859  0.26329629  0.72554742    -0.74700
C652        C  0.95328802  0.19824567  0.80479752     0.77100
C653        C  0.05199213  0.22104258  0.83882949     0.77600
C654        C  0.04021627  0.21661826  0.72256222     0.76600
C655        C  0.06176795  0.31912651  0.78852106     0.76900
C656        C  0.95803494  0.30841112  0.83112134     0.78100
C657        C  0.96149239  0.29140305  0.71927990     0.77100
C658        C  0.86046750  0.37484390  0.89410775    -0.02500
C659        C  0.13171694  0.40769515  0.85872104    -0.02500
C660        C  0.90336876  0.64193299  0.87047353    -0.02500
C661        C  0.09849358  0.36390637  0.13674074    -0.02500
C662        C  0.87084251  0.60910711  0.14159438    -0.02500
C663        C  0.13514361  0.63673845  0.09955121    -0.02500
Zn664      Zn  0.95497898  0.51183123  0.99659521     1.49700
Zn665      Zn  0.02535067  0.52555301  0.97711772     1.49400
Zn666      Zn  0.00586417  0.50723403  0.04535543     1.49100
Zn667      Zn  0.00259741  0.45760513  0.99360423     1.49500
O668        O  0.99735062  0.50071539  0.00281235    -1.84100
O669        O  0.95356901  0.54597439  0.96676264    -0.74800
O670        O  0.05534725  0.54916656  0.00339178    -0.74600
O671        O  0.97039941  0.52362052  0.06912805    -0.74100
O672        O  0.00079733  0.55638960  0.95267357    -0.74800
O673        O  0.93366028  0.52638354  0.03491742    -0.74400
O674        O  0.03920547  0.53747256  0.04976119    -0.75000
O675        O  0.01893782  0.43338932  0.02933377    -0.74400
O676        O  0.04944889  0.49935368  0.94722041    -0.75100
O677        O  0.02049549  0.46916710  0.06445761    -0.74500
O678        O  0.03293175  0.45365296  0.96002092    -0.75000
O679        O  0.96376506  0.43884318  0.97826808    -0.74900
O680        O  0.93153285  0.47766302  0.97785829    -0.74700
C681        C  0.97238056  0.56123454  0.95104599     0.77100
C682        C  0.05694814  0.55185745  0.03212780     0.77600
C683        C  0.94343091  0.53048419  0.06176242     0.76600
C684        C  0.02536731  0.44203952  0.05607373     0.76900
C685        C  0.04954631  0.47064044  0.94358820     0.78100
C686        C  0.93794758  0.45014851  0.97213458     0.77100
Zn687      Zn  0.50716232  0.76570205  0.32228483     1.49700
Zn688      Zn  0.50883211  0.70980188  0.28012221     1.49400
Zn689      Zn  0.45602700  0.75411160  0.27538250     1.49100
Zn690      Zn  0.52121750  0.77336165  0.25012513     1.49500
O691        O  0.49883628  0.75161284  0.28161497    -1.84100
O692        O  0.53053707  0.73414427  0.34692427    -0.74800
O693        O  0.47339673  0.68409777  0.29334621    -0.74600
O694        O  0.43901774  0.78547772  0.30289715    -0.74100
O695        O  0.54170976  0.70194238  0.30978138    -0.74800
O696        O  0.47026449  0.78532690  0.34218866    -0.74400
O697        O  0.43442012  0.71516609  0.28609231    -0.75000
O698        O  0.49007424  0.79345375  0.22273002    -0.74400
O699        O  0.52506546  0.69890059  0.23934905    -0.75100
O700        O  0.44707939  0.76916086  0.23399010    -0.74500
O701        O  0.54417707  0.74285842  0.22304035    -0.75000
O702        O  0.54860168  0.80628421  0.27025927    -0.74900
O703        O  0.53548493  0.79990887  0.31860043    -0.74700
C704        C  0.54573943  0.71188053  0.33645897     0.77100
C705        C  0.44518097  0.68974319  0.29461091     0.77600
C706        C  0.44590991  0.79434131  0.32935503     0.76600
C707        C  0.46212013  0.78790843  0.21797804     0.76900
C708        C  0.54131452  0.71403996  0.22084136     0.78100
C709        C  0.55005309  0.81404783  0.29821438     0.77100
Zn710      Zn  0.47719921  0.23486811  0.74289095     1.49700
Zn711      Zn  0.54488569  0.25342630  0.71935669     1.49400
Zn712      Zn  0.49237821  0.24506454  0.67235573     1.49100
Zn713      Zn  0.49327293  0.29866662  0.71802677     1.49500
O714        O  0.50197755  0.25689087  0.71328956    -1.84100
O715        O  0.50601719  0.21283482  0.77010328    -0.74800
O716        O  0.56249193  0.22658372  0.68717851    -0.74600
O717        O  0.46518689  0.20933874  0.67441560    -0.74100
O718        O  0.55123336  0.23308999  0.75962806    -0.74800
O719        O  0.44913257  0.20347818  0.72167977    -0.74400
O720        O  0.52956523  0.23033027  0.64923876    -0.75000
O721        O  0.45968220  0.30830642  0.69040587    -0.74400
O722        O  0.56710455  0.29378584  0.71317645    -0.75100
O723        O  0.46618719  0.27698649  0.65166618    -0.74500
O724        O  0.52820954  0.32479866  0.70556194    -0.75000
O725        O  0.47862592  0.30773349  0.75964647    -0.74900
O726        O  0.45509108  0.26461255  0.77154878    -0.74700
C727        C  0.53409557  0.21617476  0.77573787     0.77100
C728        C  0.55488596  0.22114088  0.65986625     0.77600
C729        C  0.44872758  0.19564457  0.69374273     0.76600
C730        C  0.45218195  0.29888703  0.66430181     0.76900
C731        C  0.55643213  0.31936304  0.70474703     0.78100
C732        C  0.46067259  0.29264798  0.77649984     0.77100
Zn733      Zn  0.74353101  0.02501055  0.72731851     1.49700
Zn734      Zn  0.72032026  0.96129955  0.75000090     1.49400
Zn735      Zn  0.71601785  0.01605283  0.79272603     1.49100
Zn736      Zn  0.67174506  0.01155968  0.73910426     1.49500
O737        O  0.71312735  0.00399396  0.75135462    -1.84100
O738        O  0.77089559  0.99363311  0.70693310    -0.74800
O739        O  0.70922772  0.94160250  0.78984434    -0.74600
O740        O  0.75768468  0.03131202  0.80149690    -0.74100
O741        O  0.76206818  0.95222558  0.73471854    -0.74800
O742        O  0.77220214  0.04790758  0.75588579    -0.74400
O743        O  0.70375898  0.98150110  0.82007328    -0.75000
O744        O  0.64760553  0.03287989  0.77254959    -0.74400
O745        O  0.69218090  0.94273443  0.72031937    -0.75100
O746        O  0.68614236  0.04912538  0.80065910    -0.74500
O747        O  0.65222425  0.97330271  0.72100942    -0.75000
O748        O  0.67346334  0.04246037  0.70609607    -0.66900
O749        O  0.72185251  0.05316436  0.69631199    -0.74700
C750        C  0.77744348  0.96638438  0.71466116     0.77100
C751        C  0.70146642  0.95320240  0.81504246     0.77600
C752        C  0.77642770  0.04524508  0.78448447     0.76600
C753        C  0.65838813  0.05016403  0.79310054     0.76900
C754        C  0.66507555  0.94868554  0.71273116     0.78100
C755        C  0.69351956  0.05725115  0.69156690     0.77100
C756        C  0.36749481  0.10282153  0.63994959    -0.02500
C757        C  0.60119120  0.86126836  0.63398257    -0.02500
C758        C  0.63784875  0.13608990  0.59844842    -0.02500
C759        C  0.36406248  0.87607159  0.39630429    -0.02500
C760        C  0.62684141  0.90369283  0.36003235    -0.02500
C761        C  0.39834179  0.14500015  0.36793891    -0.02500
Zn762      Zn  0.48689379  0.99622636  0.45961124     1.49700
Zn763      Zn  0.54027159  0.99247918  0.50747728     1.49400
Zn764      Zn  0.49296419  0.04578338  0.51036824     1.49100
Zn765      Zn  0.47298857  0.97610488  0.52955937     1.49500
O766        O  0.49786365  0.00238313  0.50208659    -1.84100
O767        O  0.52160691  0.98079041  0.43383728    -0.74800
O768        O  0.56474394  0.02697379  0.52457509    -0.74600
O769        O  0.47668475  0.07060437  0.47444524    -0.74100
O770        O  0.55804602  0.97919812  0.46839256    -0.74800
O771        O  0.46995921  0.03419352  0.44071366    -0.74400
O772        O  0.53095971  0.06411374  0.52809015    -0.75000
O773        O  0.44923905  0.00355212  0.55875478    -0.74400
O774        O  0.54551613  0.95857954  0.53743559    -0.75100
O775        O  0.46203423  0.04979595  0.54244863    -0.74500
O776        O  0.49975834  0.94678146  0.55471736    -0.75000
O777        O  0.44231461  0.95113889  0.50459385    -0.74900
O778        O  0.45349658  0.96601727  0.45759699    -0.74700
C779        C  0.54876233  0.97488213  0.44142774     0.77100
C780        C  0.55742038  0.05361750  0.53263446     0.77600
C781        C  0.46691780  0.06170674  0.44877658     0.76600
C782        C  0.44698775  0.03244159  0.55986886     0.76900
C783        C  0.52844323  0.94327238  0.55494953     0.78100
C784        C  0.43760155  0.95050141  0.47600725     0.77100
C785        C  0.41120532  0.09201849  0.39041760    -0.26300
C786        C  0.41746341  0.12347858  0.38906986    -0.14400
C787        C  0.43860788  0.13467735  0.41064069     0.36200
C788        C  0.45493133  0.11448373  0.42957459    -0.25800
C789        C  0.45017151  0.08299239  0.42836221    -0.15000
C790        C  0.42746047  0.07203395  0.40889551     0.37300
N791        N  0.41949827  0.04054970  0.40874492    -0.89300
H792        H  0.39259645  0.08225684  0.37798049     0.18400
H793        H  0.47139559  0.12356630  0.44529867     0.18400
N794        N  0.44371102  0.16658113  0.41340886    -0.88300
H795        H  0.42216001  0.03243001  0.38667508     0.35800
H796        H  0.39662575  0.03873670  0.41448713     0.40900
H797        H  0.46669918  0.17081667  0.40990508     0.40500
H798        H  0.43852255  0.17280340  0.43564510     0.35400
C799        C  0.58746228  0.94574185  0.36960861    -0.26300
C800        C  0.60855276  0.92489063  0.38213490    -0.14400
C801        C  0.61307902  0.92659426  0.41434894     0.36200
C802        C  0.59323537  0.94312379  0.43223907    -0.25800
C803        C  0.56992325  0.96042821  0.41981623    -0.15000
C804        C  0.56768503  0.96287646  0.38801237     0.37300
N805        N  0.54552054  0.98260420  0.37452044    -0.89300
H806        H  0.58534501  0.94737087  0.34518199     0.18400
H807        H  0.59649967  0.94231753  0.45659798     0.18400
N808        N  0.63880757  0.91387841  0.42960686    -0.88300
H809        H  0.54680258  0.98171859  0.35087230     0.35800
H810        H  0.55099498  0.00481812  0.38065015     0.40900
H811        H  0.65080519  0.93143952  0.43998450     0.40500
H812        H  0.63104725  0.89954728  0.44690326     0.35400
C813        C  0.37498143  0.92727740  0.42341554    -0.26300
C814        C  0.37879378  0.89543029  0.42220856    -0.14400
C815        C  0.39618116  0.88199370  0.44613031     0.36200
C816        C  0.41352202  0.90033896  0.46566871    -0.25800
C817        C  0.41312444  0.93193108  0.46275544    -0.15000
C818        C  0.39197919  0.94534071  0.44290370     0.37300
N819        N  0.38745365  0.97750344  0.44184095    -0.89300
H820        H  0.35939479  0.93897752  0.40857605     0.18400
H821        H  0.42890691  0.88972578  0.48165558     0.18400
N822        N  0.39817157  0.84973408  0.44942606    -0.88300
H823        H  0.40754221  0.98784649  0.43504357     0.35800
H824        H  0.38211989  0.98490518  0.46367099     0.40900
H825        H  0.39048164  0.84398357  0.47111040     0.40500
H826        H  0.42085646  0.84326296  0.44793663     0.35400
C827        C  0.59608725  0.09659861  0.59553109    -0.26300
C828        C  0.61993568  0.11158450  0.58019017    -0.14400
C829        C  0.62601444  0.10208351  0.54983645     0.36200
C830        C  0.60546529  0.08295982  0.53475697    -0.25800
C831        C  0.57954006  0.07213972  0.54930656    -0.15000
C832        C  0.57554792  0.07802876  0.58035898     0.37300
N833        N  0.55082384  0.06530283  0.59711727    -0.89300
H834        H  0.59205939  0.10112610  0.61930252     0.18400
H835        H  0.60972030  0.07671973  0.51140979     0.18400
N836        N  0.65328343  0.11034162  0.53436005    -0.88300
H837        H  0.55183280  0.04168137  0.59531980     0.35800
H838        H  0.53057407  0.07279793  0.58740064     0.40900
H839        H  0.64747954  0.12090619  0.51390061     0.40500
H840        H  0.66483954  0.09040870  0.52889402     0.35400
C841        C  0.58377706  0.91426028  0.61355216    -0.26300
C842        C  0.57967106  0.88222969  0.61373313    -0.14400
C843        C  0.55758023  0.87104467  0.59257637     0.36200
C844        C  0.53945100  0.89132791  0.57557337    -0.25800
C845        C  0.54337989  0.92281121  0.57722680    -0.15000
C846        C  0.56560611  0.93428830  0.59699461     0.37300
N847        N  0.57103720  0.96632511  0.60061377    -0.89300
H848        H  0.60209834  0.92494025  0.62556710     0.18400
H849        H  0.52344743  0.88224950  0.55935451     0.18400
N850        N  0.55420348  0.83952545  0.58563888    -0.88300
H851        H  0.56800109  0.97140674  0.62354593     0.35800
H852        H  0.55515067  0.97955340  0.58911098     0.40900
H853        H  0.54980392  0.82690427  0.60511588     0.40500
H854        H  0.57379455  0.83178809  0.57505841     0.35400
C855        C  0.38534596  0.08408049  0.58702347    -0.26300
C856        C  0.38787260  0.08271274  0.61904937    -0.14400
C857        C  0.41182099  0.06468245  0.63110302     0.36200
C858        C  0.42973137  0.04665270  0.61182337    -0.25800
C859        C  0.42534380  0.04720707  0.58038628    -0.15000
C860        C  0.40315894  0.06631325  0.56790824     0.37300
N861        N  0.39946441  0.06830554  0.53551299    -0.89300
H862        H  0.37050259  0.10009046  0.57605748     0.18400
H863        H  0.44789603  0.03312478  0.62136373     0.18400
N864        N  0.41807628  0.06468757  0.66297365    -0.88300
H865        H  0.38249509  0.08382957  0.52973213     0.35800
H866        H  0.39213143  0.04711571  0.52793036     0.40900
H867        H  0.44025616  0.07229503  0.66603551     0.40500
H868        H  0.41692322  0.04236409  0.67097812     0.35400
C869        C  0.69249362  0.07876774  0.63909372    -0.26300
C870        C  0.68252275  0.07980184  0.66909756    -0.14400
C871        C  0.65867653  0.09954086  0.67670425     0.36200
C872        C  0.64471068  0.11714198  0.65403814    -0.25800
C873        C  0.65475566  0.11707089  0.62355887    -0.15000
C874        C  0.67861088  0.09649995  0.61635214     0.37300
N875        N  0.68878319  0.09312971  0.58579602    -0.89300
H876        H  0.71023152  0.06299624  0.63291261     0.18400
H877        H  0.62513947  0.13016676  0.66057495     0.18400
N878        N  0.64830188  0.10121438  0.70757251    -0.88300
H879        H  0.68594617  0.07042590  0.57966035     0.35800
H880        H  0.71191386  0.09799284  0.58509091     0.40900
H881        H  0.63051429  0.11669907  0.70957220     0.40500
H882        H  0.66609835  0.10971200  0.72065004     0.35400
C883        C  0.66608484  0.90729322  0.67472163    -0.26300
C884        C  0.64901818  0.92619339  0.69362307    -0.14400
C885        C  0.61765488  0.92185930  0.69511118     0.36200
C886        C  0.60390430  0.89989137  0.67680713    -0.25800
C887        C  0.62041692  0.88211013  0.65566026    -0.15000
C888        C  0.65262476  0.88501879  0.65651501     0.37300
N889        N  0.67239285  0.86436184  0.64133723    -0.89300
H890        H  0.69050749  0.90940186  0.67434829     0.18400
H891        H  0.57953911  0.89774758  0.67803451     0.18400
N892        N  0.59959134  0.93934681  0.71551256    -0.88300
H893        H  0.68588874  0.85352313  0.65758175     0.35800
H894        H  0.68674243  0.87695871  0.62724721     0.40900
H895        H  0.58853257  0.92434674  0.73021526     0.40500
H896        H  0.58315889  0.95080071  0.70279944     0.35400
C897        C  0.42640899  0.16748176  0.65043454    -0.26300
C898        C  0.42877353  0.17077545  0.68202384    -0.14400
C899        C  0.41251193  0.15037183  0.70065219     0.36200
C900        C  0.39416103  0.12776461  0.68721334    -0.25800
C901        C  0.39007067  0.12576904  0.65532075    -0.15000
C902        C  0.40765487  0.14576764  0.63712176     0.37300
N903        N  0.40590930  0.14490759  0.60470521    -0.89300
H904        H  0.43881858  0.18245012  0.63537964     0.18400
H905        H  0.38333722  0.11165593  0.70215357     0.18400
N906        N  0.41455278  0.15251166  0.73308800    -0.88300
H907        H  0.42759042  0.14071426  0.59625236     0.35800
H908        H  0.39897393  0.16623312  0.59686368     0.40900
H909        H  0.43663949  0.14677405  0.73929909     0.40500
H910        H  0.40036660  0.13660994  0.74352533     0.35400
C911        C  0.58524856  0.16319639  0.60382592    -0.26300
C912        C  0.61600673  0.16048131  0.61268983    -0.14400
C913        C  0.62684923  0.18239410  0.63372866     0.36200
C914        C  0.60676488  0.20253724  0.64788889    -0.25800
C915        C  0.57581930  0.20276762  0.64094853    -0.15000
C916        C  0.56532493  0.18365542  0.61778060     0.37300
N917        N  0.53417693  0.18414495  0.60885108    -0.89300
H918        H  0.57608059  0.14968974  0.58566286     0.18400
H919        H  0.61551495  0.21784202  0.66493121     0.18400
N920        N  0.65820119  0.18364038  0.64179661    -0.88300
H921        H  0.52526270  0.16240798  0.61214320     0.35800
H922        H  0.53318664  0.18917269  0.58568068     0.40900
H923        H  0.66007670  0.18050519  0.66523757     0.40500
H924        H  0.66624399  0.20534609  0.63655918     0.35400
C925        C  0.57403098  0.88294779  0.34286160    -0.26300
C926        C  0.60593110  0.88284195  0.33998643    -0.14400
C927        C  0.61856801  0.86047149  0.32032050     0.36200
C928        C  0.59985648  0.83985133  0.30472112    -0.25800
C929        C  0.56849741  0.84006716  0.30863083    -0.15000
C930        C  0.55558528  0.86232852  0.32757358     0.37300
N931        N  0.52354170  0.86430416  0.33229376    -0.89300
H932        H  0.56258546  0.89741042  0.35870400     0.18400
H933        H  0.61013235  0.82239211  0.29091895     0.18400
N934        N  0.65068066  0.85777910  0.31697586    -0.88300
H935        H  0.51599132  0.84480719  0.34347834     0.35800
H936        H  0.51286157  0.86589441  0.31119240     0.40900
H937        H  0.65592945  0.86001341  0.29396733     0.40500
H938        H  0.65704346  0.83599260  0.32398456     0.35400
C939        C  0.43814462  0.83746493  0.36484450    -0.26300
C940        C  0.42560078  0.81627049  0.34487480    -0.14400
C941        C  0.39420591  0.81787291  0.33880973     0.36200
C942        C  0.37623038  0.83868695  0.35432577    -0.25800
C943        C  0.38797217  0.85805214  0.37699468    -0.15000
C944        C  0.42015581  0.85899817  0.37992123     0.37300
N945        N  0.43531239  0.88259814  0.39612414    -0.89300
H946        H  0.46243356  0.83805976  0.36808824     0.18400
H947        H  0.35209670  0.83830300  0.35005563     0.18400
N948        N  0.37941791  0.79792317  0.31797045    -0.88300
H949        H  0.44897097  0.89450185  0.38081989     0.35800
H950        H  0.44966818  0.87256726  0.41213902     0.40900
H951        H  0.38421988  0.77548532  0.32409581     0.40500
H952        H  0.38737819  0.80228170  0.29608763     0.35400
C953        C  0.06419193  0.59565957  0.06455166    -0.26300
C954        C  0.07767857  0.57407351  0.04608774    -0.14400
C955        C  0.10957451  0.57272503  0.04464127     0.36200
C956        C  0.12686296  0.59343078  0.06170395    -0.25800
C957        C  0.11355319  0.61638740  0.07978214    -0.15000
C958        C  0.08108781  0.61590839  0.08189050     0.37300
N959        N  0.06440819  0.63376419  0.10314271    -0.89300
H960        H  0.03973876  0.59600621  0.06668821     0.18400
H961        H  0.15128903  0.59165082  0.06079224     0.18400
N962        N  0.12525985  0.55039182  0.02696234    -0.88300
H963        H  0.05233684  0.61925187  0.11753413     0.35800
H964        H  0.04867542  0.64686204  0.09111762     0.40900
H965        H  0.11026909  0.53605323  0.01572313     0.40500
H966        H  0.13760791  0.53673217  0.04195813     0.35400
C967        C  0.88514842  0.55490888  0.12127373    -0.26300
C968        C  0.89134506  0.58645990  0.12323266    -0.14400
C969        C  0.91468736  0.59797872  0.10402238     0.36200
C970        C  0.93124964  0.57870142  0.08531310    -0.25800
C971        C  0.92491789  0.54785376  0.08353150    -0.15000
C972        C  0.90151866  0.53561238  0.10170525     0.37300
N973        N  0.89327961  0.50410090  0.10049852    -0.89300
H974        H  0.86654169  0.54502453  0.13370731     0.18400
H975        H  0.94897131  0.58830712  0.07123529     0.18400
N976        N  0.92161677  0.62967506  0.10294954    -0.88300
H977        H  0.89741532  0.49468025  0.12190350     0.35800
H978        H  0.90681854  0.49226586  0.08520204     0.40900
H979        H  0.91864704  0.63726017  0.08064185     0.40500
H980        H  0.94441876  0.63248572  0.10859553     0.35400
C981        C  0.05852102  0.43500500  0.10024716    -0.26300
C982        C  0.04100169  0.42150881  0.07769942    -0.14400
C983        C  0.03970015  0.38964443  0.07627288     0.36200
C984        C  0.05745147  0.37223761  0.09645413    -0.25800
C985        C  0.07763922  0.38572135  0.11758465    -0.15000
C986        C  0.07591685  0.41805857  0.12050501     0.37300
N987        N  0.08966176  0.43445354  0.14483493    -0.89300
H988        H  0.05889622  0.45948883  0.10245133     0.18400
H989        H  0.05668291  0.34773515  0.09479743     0.18400
N990        N  0.02056577  0.37504010  0.05441811    -0.88300
H991        H  0.10385428  0.45102397  0.13549877     0.35800
H992        H  0.07270899  0.44567635  0.15691147     0.40900
H993        H  0.99818848  0.38044821  0.05980242     0.40500
H994        H  0.02243565  0.35145068  0.05621340     0.35400
C995        C  0.94873577  0.60793503  0.88199238    -0.26300
C996        C  0.92466060  0.62547006  0.89389031    -0.14400
C997        C  0.91892517  0.62234165  0.92573674     0.36200
C998        C  0.93711760  0.60338936  0.94359801    -0.25800
C999        C  0.95988469  0.58535240  0.93117641    -0.15000
C1000       C  0.96604188  0.58789107  0.89979554     0.37300
N1001       N  0.98824232  0.56957764  0.88459871    -0.89300
H1002       H  0.95318299  0.60858770  0.85784997     0.18400
H1003       H  0.93182853  0.60115721  0.96752603     0.18400
N1004       N  0.89327324  0.63569806  0.94031520    -0.88300
H1005       H  0.97683568  0.55605159  0.86890728     0.35800
H1006       H  0.99927316  0.55467276  0.89925598     0.40900
H1007       H  0.90103077  0.64919963  0.95812677     0.40500
H1008       H  0.88002595  0.61841568  0.94973024     0.35400
C1009       C  0.09169949  0.47305131  0.90476862    -0.26300
C1010       C  0.06942802  0.45617161  0.92025555    -0.14400
C1011       C  0.06714873  0.42490670  0.91405120     0.36200
C1012       C  0.08743765  0.41123316  0.89422294    -0.25800
C1013       C  0.10983409  0.42758868  0.87813524    -0.15000
C1014       C  0.11192148  0.45929472  0.88404339     0.37300
N1015       N  0.13519223  0.47761719  0.87083194    -0.89300
H1016       H  0.09407566  0.49705650  0.90934300     0.18400
H1017       H  0.08520713  0.38700777  0.89087730     0.18400
N1018       N  0.04410228  0.40649824  0.92767458    -0.88300
H1019       H  0.12483933  0.49564407  0.85936121     0.35800
H1020       H  0.14795231  0.48707698  0.88835891     0.40900
H1021       H  0.05459293  0.38896335  0.93979916     0.40500
H1022       H  0.03121165  0.39681902  0.91034987     0.35400
C1023       C  0.88420341  0.38792241  0.94663631    -0.26300
C1024       C  0.87935435  0.39588797  0.91574545    -0.14400
C1025       C  0.89544594  0.42206228  0.90477140     0.36200
C1026       C  0.91187968  0.44015292  0.92464629    -0.25800
C1027       C  0.91609540  0.43196831  0.95486029    -0.15000
C1028       C  0.90224432  0.40543082  0.96610941     0.37300
N1029       N  0.90617809  0.39528125  0.99690518    -0.89300
H1030       H  0.87542111  0.36699659  0.95587215     0.18400
H1031       H  0.92356967  0.45988764  0.91566013     0.18400
N1032       N  0.89787843  0.43029517  0.87342873    -0.88300
H1033       H  0.88488903  0.39535190  0.00719848     0.35800
H1034       H  0.91956594  0.41025125  0.00931358     0.40900
H1035       H  0.87690733  0.43301946  0.86314952     0.40500
H1036       H  0.91115648  0.41432699  0.86234581     0.35400
C1037       C  0.06831439  0.37096760  0.80872055    -0.26300
C1038       C  0.08196472  0.34356162  0.80027322    -0.14400
C1039       C  0.11321309  0.33983854  0.80636985     0.36200
C1040       C  0.12886774  0.36228439  0.82251111    -0.25800
C1041       C  0.11379183  0.38723883  0.83585271    -0.15000
C1042       C  0.08342620  0.39260390  0.82615174     0.37300
N1043       N  0.06737015  0.41991503  0.83327282    -0.89300
H1044       H  0.04487226  0.37537723  0.80303676     0.18400
H1045       H  0.15266919  0.35866914  0.82710149     0.18400
N1046       N  0.12965501  0.31337901  0.79736898    -0.88300
H1047       H  0.04770702  0.41399139  0.84506114     0.35800
H1048       H  0.06064064  0.43025287  0.81297016     0.40900
H1049       H  0.12686360  0.31036576  0.77404451     0.40500
H1050       H  0.12109814  0.29454215  0.80898900     0.35400
C1051       C  0.91583298  0.34582324  0.83040269    -0.26300
C1052       C  0.93444161  0.32619665  0.84733662    -0.14400
C1053       C  0.92949908  0.32390805  0.87887316     0.36200
C1054       C  0.90611060  0.34035186  0.89220234    -0.25800
C1055       C  0.88619716  0.35926952  0.87537263    -0.15000
C1056       C  0.89227163  0.36249586  0.84372076     0.37300
N1057       N  0.87627234  0.38353765  0.82479368    -0.89300
H1058       H  0.91950668  0.34843847  0.80624022     0.18400
H1059       H  0.90276656  0.33738009  0.91633923     0.18400
N1060       N  0.94778057  0.30528492  0.89829801    -0.88300
H1061       H  0.86647023  0.37139714  0.80699985     0.35800
H1062       H  0.89181891  0.39863824  0.81518763     0.40900
H1063       H  0.97042997  0.31154795  0.89567528     0.40500
H1064       H  0.94493468  0.28256916  0.89229503     0.35400
C1065       C  0.80701299  0.43900195  0.86481804    -0.26300
C1066       C  0.79868935  0.42756623  0.83640354    -0.14400
C1067       C  0.80324337  0.39637822  0.83091749     0.36200
C1068       C  0.82098630  0.37927501  0.85137095    -0.25800
C1069       C  0.83597739  0.39304192  0.87605824    -0.15000
C1070       C  0.82452744  0.42186311  0.88508094     0.37300
N1071       N  0.83031527  0.43413791  0.91452727    -0.89300
H1072       H  0.80113838  0.46202042  0.87100648     0.18400
H1073       H  0.82556621  0.35582675  0.84617531     0.18400
N1074       N  0.79111295  0.38245735  0.80415163    -0.88300
H1075       H  0.80954039  0.43765257  0.92525245     0.35800
H1076       H  0.84072593  0.45527849  0.91182795     0.40900
H1077       H  0.76754176  0.38324024  0.80584173     0.40500
H1078       H  0.79704538  0.35951172  0.80331954     0.35400
C1079       C  0.89822489  0.61011617  0.82087793    -0.26300
C1080       C  0.88969622  0.61510001  0.85152590    -0.14400
C1081       C  0.87061481  0.59282596  0.86496321     0.36200
C1082       C  0.85699527  0.57048230  0.84706085    -0.25800
C1083       C  0.86261970  0.56852344  0.81585227    -0.15000
C1084       C  0.88450927  0.58772865  0.80300581     0.37300
N1085       N  0.89220046  0.58544601  0.77156250    -0.89300
H1086       H  0.91546037  0.62371318  0.81004975     0.18400
H1087       H  0.84123535  0.55490524  0.85770341     0.18400
N1088       N  0.86417156  0.59315196  0.89674016    -0.88300
H1089       H  0.91544369  0.58138616  0.77000377     0.35800
H1090       H  0.88768967  0.60635760  0.76120288     0.40900
H1091       H  0.87126925  0.57246700  0.90602603     0.40500
H1092       H  0.84074947  0.59469993  0.89961172     0.35400
C1093       C  0.16361166  0.31079537  0.10618219    -0.26300
C1094       C  0.16190082  0.31541086  0.07486622    -0.14400
C1095       C  0.14060221  0.33628030  0.06348082     0.36200
C1096       C  0.12150533  0.35167621  0.08358694    -0.25800
C1097       C  0.12102169  0.34584769  0.11533237    -0.15000
C1098       C  0.14378068  0.32511744  0.12645343     0.37300
N1099       N  0.14820024  0.31783470  0.15798114    -0.89300
H1100       H  0.18065402  0.29555064  0.11524199     0.18400
H1101       H  0.10812741  0.36947268  0.07360467     0.18400
N1102       N  0.13927768  0.34304945  0.03152921    -0.88300
H1103       H  0.14550671  0.29440527  0.16057748     0.35800
H1104       H  0.13193130  0.32742099  0.17173884     0.40900
H1105       H  0.15929587  0.35423935  0.02565277     0.40500
H1106       H  0.12159203  0.35802584  0.02656400     0.35400
C1107       C  0.18411850  0.38613629  0.92662749    -0.26300
C1108       C  0.17957308  0.35490734  0.92988204    -0.14400
C1109       C  0.15746330  0.34080020  0.91155822     0.36200
C1110       C  0.14171407  0.35777863  0.88964618    -0.25800
C1111       C  0.14801977  0.38878916  0.88431364    -0.15000
C1112       C  0.16843339  0.40310580  0.90480138     0.37300
N1113       N  0.17414021  0.43500129  0.90302172    -0.89300
H1114       H  0.20016096  0.39774119  0.94108188     0.18400
H1115       H  0.12405894  0.34624284  0.87734560     0.18400
N1116       N  0.15073886  0.30915719  0.91490144    -0.88300
H1117       H  0.19726254  0.43828800  0.89930704     0.35800
H1118       H  0.16869556  0.44454388  0.92397613     0.40900
H1119       H  0.15456319  0.29859787  0.89407728     0.40500
H1120       H  0.12777777  0.30697496  0.92011079     0.35400
C1121       C  0.91948229  0.15273551  0.79790039    -0.26300
C1122       C  0.93441013  0.17292711  0.81732920    -0.14400
C1123       C  0.93114968  0.16854015  0.84904271     0.36200
C1124       C  0.90995581  0.14762428  0.85998498    -0.25800
C1125       C  0.89211320  0.12952935  0.84066268    -0.15000
C1126       C  0.89971387  0.13022347  0.80919990     0.37300
N1127       N  0.88929391  0.10741034  0.78870100    -0.89300
H1128       H  0.92357035  0.15396686  0.77371127     0.18400
H1129       H  0.90652042  0.14624544  0.88421910     0.18400
N1130       N  0.94909968  0.18537907  0.87037490    -0.88300
H1131       H  0.87857109  0.11812113  0.77043354     0.35800
H1132       H  0.90819770  0.09611572  0.78008436     0.40900
H1133       H  0.97151068  0.17810253  0.86800338     0.40500
H1134       H  0.94295012  0.18029199  0.89268798     0.35400
C1135       C  0.92673169  0.04886747  0.88616172    -0.26300
C1136       C  0.92546704  0.05320460  0.91759936    -0.14400
C1137       C  0.90686458  0.07650838  0.92901781     0.36200
C1138       C  0.88889155  0.09338652  0.90932816    -0.25800
C1139       C  0.88772663  0.08782827  0.87769835    -0.15000
C1140       C  0.90862290  0.06617179  0.86622488     0.37300
N1141       N  0.91189773  0.06187926  0.83426663    -0.89300
H1142       H  0.94205516  0.03210323  0.87692733     0.18400
H1143       H  0.87693732  0.11215040  0.91942888     0.18400
N1144       N  0.90702977  0.08511513  0.96035539    -0.88300
H1145       H  0.90770666  0.03906148  0.82946357     0.35800
H1146       H  0.93435222  0.06654495  0.82849358     0.40900
H1147       H  0.92924650  0.08977800  0.96699166     0.40500
H1148       H  0.89835420  0.06738087  0.97350389     0.35400
C1149       C  0.84307009  0.05906667  0.83693399    -0.26300
C1150       C  0.84753805  0.09070987  0.83381164    -0.14400
C1151       C  0.82871027  0.10629269  0.81258057     0.36200
C1152       C  0.80749428  0.09045095  0.79508492    -0.25800
C1153       C  0.80314652  0.05929576  0.79886517    -0.15000
C1154       C  0.82182651  0.04321543  0.81947881     0.37300
N1155       N  0.81967892  0.01088165  0.82376192    -0.89300
H1156       H  0.85498852  0.04615257  0.85401353     0.18400
H1157       H  0.79296924  0.10304319  0.77970904     0.18400
N1158       N  0.83013421  0.13859527  0.80944267    -0.88300
H1159       H  0.84089159  0.00164029  0.81887104     0.35800
H1160       H  0.80486242  0.00104158  0.80825445     0.40900
H1161       H  0.83442697  0.14391722  0.78673391     0.40500
H1162       H  0.80887733  0.14742686  0.81485555     0.35400
C1163       C  0.08513316  0.88723707  0.92173856    -0.26300
C1164       C  0.07845207  0.88317756  0.89060139    -0.14400
C1165       C  0.05411471  0.90066549  0.87839392     0.36200
C1166       C  0.03739497  0.92026948  0.89695298    -0.25800
C1167       C  0.04428734  0.92357771  0.92767785    -0.15000
C1168       C  0.06835154  0.90672850  0.94026710     0.37300
N1169       N  0.07733018  0.91123196  0.97131346    -0.89300
H1170       H  0.10491662  0.87709625  0.93181151     0.18400
H1171       H  0.01918713  0.93348512  0.88704380     0.18400
N1172       N  0.04662111  0.89925582  0.84683818    -0.88300
H1173       H  0.09756537  0.89989248  0.97610257     0.35800
H1174       H  0.06095555  0.90108383  0.98508983     0.40900
H1175       H  0.04884934  0.92104762  0.83763490     0.40500
H1176       H  0.02393337  0.89291410  0.84483240     0.35400
C1177       C  0.88766316  0.93421345  0.04210099    -0.26300
C1178       C  0.91898820  0.92940805  0.04213507    -0.14400
C1179       C  0.93043065  0.90447547  0.05884582     0.36200
C1180       C  0.91105621  0.88689805  0.07640887    -0.25800
C1181       C  0.87988320  0.89358674  0.08001181    -0.15000
C1182       C  0.86791489  0.91640428  0.05982337     0.37300
N1183       N  0.83619553  0.92298540  0.05683661    -0.89300
H1184       H  0.87826533  0.95234631  0.02832569     0.18400
H1185       H  0.92141903  0.86739934  0.08700540     0.18400
N1186       N  0.96185893  0.89643863  0.05937377    -0.88300
H1187       H  0.83272314  0.94555727  0.06316428     0.35800
H1188       H  0.82314111  0.90998232  0.07134277     0.40900
H1189       H  0.97445808  0.91471259  0.06756399     0.40500
H1190       H  0.96879464  0.89077243  0.03748048     0.35400
C1191       C  0.91868109  0.09126571  0.06006954    -0.26300
C1192       C  0.95036043  0.09044819  0.06249647    -0.14400
C1193       C  0.96442665  0.11188580  0.08159617     0.36200
C1194       C  0.94655419  0.13054409  0.10006713    -0.25800
C1195       C  0.91481891  0.12644460  0.10249768    -0.15000
C1196       C  0.90079246  0.10857119  0.07960364     0.37300
N1197       N  0.86839933  0.10649703  0.07698727    -0.89300
H1198       H  0.90728215  0.07680026  0.04392116     0.18400
H1199       H  0.95820251  0.14728774  0.11347042     0.18400
N1200       N  0.99660066  0.11512077  0.08323964    -0.88300
H1201       H  0.86204156  0.09373207  0.05812039     0.35800
H1202       H  0.86002868  0.09496841  0.09591635     0.40900
H1203       H  0.00481624  0.11988034  0.06151392     0.40500
H1204       H  0.00592468  0.09474283  0.09104398     0.35400
C1205       C  0.06531980  0.92950556  0.08069668    -0.26300
C1206       C  0.06339407  0.96130556  0.08282117    -0.14400
C1207       C  0.07873909  0.97552414  0.10703112     0.36200
C1208       C  0.09776027  0.95826794  0.12605422    -0.25800
C1209       C  0.10365272  0.92714070  0.12046462    -0.15000
C1210       C  0.08489120  0.91252839  0.09891030     0.37300
N1211       N  0.08719513  0.88053759  0.09368143    -0.89300
H1212       H  0.05275940  0.91736502  0.06350264     0.18400
H1213       H  0.10830939  0.96982238  0.14480503     0.18400
N1214       N  0.07546632  0.00721896  0.11311707    -0.88300
H1215       H  0.09311567  0.87707267  0.07101522     0.35800
H1216       H  0.06590043  0.87087636  0.09726806     0.40900
H1217       H  0.05248941  0.01197560  0.11603238     0.40500
H1218       H  0.08363766  0.01953705  0.09456646     0.35400
C1219       C  0.11149659  0.19274082  0.89305873    -0.26300
C1220       C  0.11226424  0.16121230  0.88637947    -0.14400
C1221       C  0.08782424  0.14958269  0.86890388     0.36200
C1222       C  0.06750298  0.16951718  0.85458804    -0.25800
C1223       C  0.06970487  0.20088250  0.85858547    -0.15000
C1224       C  0.09091715  0.21257081  0.87897394     0.37300
N1225       N  0.09228031  0.24469910  0.88432511    -0.89300
H1226       H  0.12686924  0.20252543  0.90927728     0.18400
H1227       H  0.05041603  0.16045338  0.83950256     0.18400
N1228       N  0.08432223  0.11761036  0.86440922    -0.88300
H1229       H  0.10976226  0.24986393  0.89941938     0.35800
H1230       H  0.07212961  0.25101464  0.89493846     0.40900
H1231       H  0.08444848  0.11321722  0.84115159     0.40500
H1232       H  0.06313146  0.11129932  0.87282261     0.35400
C1233       C  0.08326168  0.10747719  0.96230414    -0.26300
C1234       C  0.08122922  0.07676752  0.95462173    -0.14400
C1235       C  0.09904475  0.06578071  0.93064289     0.36200
C1236       C  0.11756590  0.08577399  0.91414185    -0.25800
C1237       C  0.11967170  0.11715118  0.92093347    -0.15000
C1238       C  0.10162162  0.12769250  0.94557800     0.37300
N1239       N  0.10084982  0.15926293  0.95307464    -0.89300
H1240       H  0.06915227  0.11628011  0.98031056     0.18400
H1241       H  0.12859192  0.07642886  0.89455043     0.18400
N1242       N  0.09756635  0.03423920  0.92247303    -0.88300
H1243       H  0.10713605  0.16154976  0.97580546     0.35800
H1244       H  0.07855713  0.16687617  0.95083591     0.40900
H1245       H  0.10591724  0.02160864  0.94077405     0.40500
H1246       H  0.11168000  0.02962429  0.90405090     0.35400
C1247       C  0.16846420  0.15463090  0.94769147    -0.26300
C1248       C  0.16219152  0.15859045  0.91647939    -0.14400
C1249       C  0.17979098  0.18062169  0.90052524     0.36200
C1250       C  0.19931432  0.19996131  0.91612911    -0.25800
C1251       C  0.20176312  0.19860046  0.94756382    -0.15000
C1252       C  0.18711662  0.17491952  0.96353268     0.37300
N1253       N  0.19081320  0.17057183  0.99564837    -0.89300
H1254       H  0.15836153  0.13629595  0.96045254     0.18400
H1255       H  0.21083502  0.21781126  0.90368116     0.18400
N1256       N  0.17644650  0.18500340  0.86854250    -0.88300
H1257       H  0.16997211  0.17491324  0.00591341     0.35800
H1258       H  0.20644385  0.18578023  0.00472753     0.40900
H1259       H  0.16963022  0.20739362  0.86453792     0.40500
H1260       H  0.19758315  0.18191802  0.85841303     0.35400
C1261       C  0.32251440  0.03953279  0.68376684    -0.26300
C1262       C  0.30376862  0.05733546  0.70199438    -0.14400
C1263       C  0.30732021  0.08918764  0.70146971     0.36200
C1264       C  0.32973347  0.10197603  0.68310294    -0.25800
C1265       C  0.34834232  0.08457562  0.66364314    -0.15000
C1266       C  0.34396667  0.05245182  0.66415785     0.37300
N1267       N  0.35891330  0.03254937  0.64348044    -0.89300
H1268       H  0.31933045  0.01513858  0.68347252     0.18400
H1269       H  0.33142607  0.12649443  0.68269320     0.18400
N1270       N  0.28768488  0.10963605  0.71753185    -0.88300
H1271       H  0.34253609  0.02148643  0.63048306     0.35800
H1272       H  0.37041524  0.01602397  0.65608011     0.40900
H1273       H  0.27042690  0.09846771  0.72899990     0.40500
H1274       H  0.27686472  0.12335385  0.70138480     0.35400
C1275       C  0.17835446  0.10161181  0.88498173    -0.26300
C1276       C  0.15589635  0.12228044  0.87465420    -0.14400
C1277       C  0.15345502  0.12626552  0.84255888     0.36200
C1278       C  0.16887439  0.10659821  0.82301080    -0.25800
C1279       C  0.18829634  0.08396769  0.83387980    -0.15000
C1280       C  0.19398601  0.08213583  0.86532580     0.37300
N1281       N  0.21379432  0.05976062  0.87845278    -0.89300
H1282       H  0.18232029  0.09913513  0.90911861     0.18400
H1283       H  0.16535702  0.10891250  0.79876558     0.18400
N1284       N  0.13698817  0.15086958  0.82908259    -0.88300
H1285       H  0.23153636  0.07130020  0.88899072     0.35800
H1286       H  0.22353695  0.04593091  0.86202505     0.40900
H1287       H  0.12118367  0.14189295  0.81394171     0.40500
H1288       H  0.15208049  0.16397384  0.81632892     0.35400
C1289       C  0.14956508  0.93356870  0.84470167    -0.26300
C1290       C  0.14386174  0.93532468  0.81358145    -0.14400
C1291       C  0.12207591  0.91620467  0.80067520     0.36200
C1292       C  0.10778611  0.89434232  0.81865821    -0.25800
C1293       C  0.11505947  0.89023694  0.84978834    -0.15000
C1294       C  0.13484468  0.91201992  0.86300664     0.37300
N1295       N  0.14103767  0.91169322  0.89487822    -0.89300
H1296       H  0.16596449  0.94872989  0.85483666     0.18400
H1297       H  0.09052734  0.88094728  0.80775319     0.18400
N1298       N  0.11448619  0.91809369  0.76912909    -0.88300
H1299       H  0.13481245  0.93277413  0.90367816     0.35800
H1300       H  0.16432455  0.90908116  0.89803294     0.40900
H1301       H  0.13409105  0.91443665  0.75642944     0.40500
H1302       H  0.10665827  0.94002544  0.76453068     0.35400
C1303       C  0.82253671  0.35886608  0.93552145    -0.26300
C1304       C  0.84109813  0.35008077  0.91088514    -0.14400
C1305       C  0.83737826  0.31970404  0.90015348     0.36200
C1306       C  0.81912375  0.29916730  0.91601948    -0.25800
C1307       C  0.80317446  0.30763580  0.94188293    -0.15000
C1308       C  0.80441666  0.33809677  0.95155727     0.37300
N1309       N  0.78684400  0.34915906  0.97659482    -0.89300
H1310       H  0.82250670  0.38219916  0.94293208     0.18400
H1311       H  0.81739678  0.27605976  0.90784440     0.18400
N1312       N  0.85075536  0.30937007  0.87248360    -0.88300
H1313       H  0.80191303  0.35561691  0.99365747     0.35800
H1314       H  0.77284447  0.33240452  0.98571334     0.40900
H1315       H  0.83348930  0.30211199  0.85802517     0.40500
H1316       H  0.86444262  0.29063399  0.87746206     0.35400
C1317       C  0.83944859  0.15309081  0.11327047    -0.26300
C1318       C  0.87064605  0.16026285  0.11097594    -0.14400
C1319       C  0.87868804  0.18300669  0.08927513     0.36200
C1320       C  0.85651900  0.19672687  0.07064337    -0.25800
C1321       C  0.82612960  0.18791368  0.07219663    -0.15000
C1322       C  0.81762538  0.16623650  0.09428943     0.37300
N1323       N  0.78681194  0.15675629  0.09792839    -0.89300
H1324       H  0.83147240  0.13528351  0.12804932     0.18400
H1325       H  0.86343043  0.21327576  0.05376943     0.18400
N1326       N  0.90967788  0.19162576  0.08537830    -0.88300
H1327       H  0.77967005  0.14574586  0.07828056     0.35800
H1328       H  0.77337353  0.17596136  0.10129975     0.40900
H1329       H  0.91138875  0.21499045  0.08896384     0.40500
H1330       H  0.91579255  0.18729479  0.06292179     0.35400
C1331       C  0.82144502  0.17144606  0.89857544    -0.26300
C1332       C  0.80446710  0.15385514  0.91914280    -0.14400
C1333       C  0.80589721  0.12200380  0.91660247     0.36200
C1334       C  0.82471124  0.10889541  0.89469264    -0.25800
C1335       C  0.84427591  0.12639118  0.87594453    -0.15000
C1336       C  0.84058732  0.15845470  0.87690954     0.37300
N1337       N  0.85471322  0.17835199  0.85540728    -0.89300
H1338       H  0.81993326  0.19598001  0.89904991     0.18400
H1339       H  0.82564673  0.08436291  0.89371572     0.18400
N1340       N  0.78865785  0.10223722  0.93577795    -0.88300
H1341       H  0.86762381  0.19418445  0.86735040     0.35800
H1342       H  0.83778498  0.19031286  0.84387350     0.40900
H1343       H  0.76576443  0.10773694  0.93352723     0.40500
H1344       H  0.79538392  0.10556168  0.95823329     0.35400
C1345       C  0.07428267  0.87044109  0.19424790    -0.26300
C1346       C  0.07853613  0.83948283  0.18899818    -0.14400
C1347       C  0.09881192  0.83044569  0.16603943     0.36200
C1348       C  0.11405248  0.85238219  0.14883237    -0.25800
C1349       C  0.11112169  0.88382123  0.15473282    -0.15000
C1350       C  0.09025168  0.89246557  0.17772637     0.37300
N1351       N  0.08565000  0.92378016  0.18489696    -0.89300
H1352       H  0.05824045  0.87768580  0.21131213     0.18400
H1353       H  0.12731768  0.84418081  0.13009584     0.18400
N1354       N  0.10326554  0.79915518  0.15851940    -0.88300
H1355       H  0.09095473  0.92692703  0.20777034     0.35800
H1356       H  0.06272807  0.92878042  0.18187615     0.40900
H1357       H  0.08237742  0.78957067  0.15296070     0.40500
H1358       H  0.11209727  0.78788138  0.17745936     0.35400
C1359       C  0.92123240  0.62252076  0.16909177    -0.26300
C1360       C  0.89037524  0.62928828  0.16342387    -0.14400
C1361       C  0.87791090  0.65385170  0.18022148     0.36200
C1362       C  0.89706744  0.67437851  0.19533866    -0.25800
C1363       C  0.92840157  0.67014041  0.19548926    -0.15000
C1364       C  0.94039370  0.64308892  0.18392336     0.37300
N1365       N  0.97224971  0.63705679  0.18658918    -0.89300
H1366       H  0.93111683  0.60163936  0.16110210     0.18400
H1367       H  0.88752785  0.69461754  0.20539004     0.18400
N1368       N  0.84600446  0.65903580  0.18086291    -0.88300
H1369       H  0.97769967  0.61626986  0.17667012     0.35800
H1370       H  0.97725071  0.63497860  0.20968271     0.40900
H1371       H  0.84158776  0.68097158  0.17292895     0.40500
H1372       H  0.83895718  0.65794127  0.20345627     0.35400
C1373       C  0.92621995  0.84773363  0.15526714    -0.26300
C1374       C  0.92765815  0.81632747  0.15033226    -0.14400
C1375       C  0.90439059  0.80255411  0.13345241     0.36200
C1376       C  0.88124570  0.82076079  0.12073001    -0.25800
C1377       C  0.88166476  0.85299124  0.12257099    -0.15000
C1378       C  0.90384969  0.86592896  0.14195178     0.37300
N1379       N  0.90487508  0.89800225  0.14691588    -0.89300
H1380       H  0.94321591  0.85866087  0.16916284     0.18400
H1381       H  0.86314370  0.80921733  0.10915977     0.18400
N1382       N  0.90363146  0.77012543  0.13012061    -0.88300
H1383       H  0.90294119  0.90182334  0.17020786     0.35800
H1384       H  0.92596345  0.90606422  0.13982815     0.40900
H1385       H  0.92182778  0.76399349  0.11634501     0.40500
H1386       H  0.88412201  0.76341357  0.11854791     0.35400
C1387       C  0.07936848  0.70276730  0.11974129    -0.26300
C1388       C  0.07755553  0.70011136  0.15121314    -0.14400
C1389       C  0.09829072  0.68054264  0.16623815     0.36200
C1390       C  0.11791337  0.66247247  0.14943220    -0.25800
C1391       C  0.11702005  0.66161506  0.11746644    -0.15000
C1392       C  0.09941226  0.68499793  0.10286317     0.37300
N1393       N  0.09982736  0.69070085  0.07091199    -0.89300
H1394       H  0.06508536  0.71898834  0.10796259     0.18400
H1395       H  0.13371939  0.64881988  0.16220230     0.18400
N1396       N  0.09968154  0.67757052  0.19859563    -0.88300
H1397       H  0.12063945  0.70000751  0.06491013     0.35800
H1398       H  0.09539874  0.67087988  0.05897682     0.40900
H1399       H  0.07833845  0.67152363  0.20680204     0.40500
H1400       H  0.10657297  0.69816624  0.20796175     0.35400
C1401       C  0.64186926  0.12365701  0.08228171    -0.26300
C1402       C  0.64939005  0.12902897  0.11316206    -0.14400
C1403       C  0.67138081  0.15235390  0.11843741     0.36200
C1404       C  0.68770363  0.16480256  0.09424247    -0.25800
C1405       C  0.68233350  0.15621212  0.06428094    -0.15000
C1406       C  0.65844912  0.13604416  0.05810402     0.37300
N1407       N  0.64956735  0.12832627  0.02771340    -0.89300
H1408       H  0.62262989  0.10999726  0.07609462     0.18400
H1409       H  0.70467975  0.18190749  0.09894282     0.18400
N1410       N  0.67783181  0.16447330  0.14780676    -0.88300
H1411       H  0.65296385  0.10501162  0.02508140     0.35800
H1412       H  0.66301705  0.13909814  0.01149332     0.40900
H1413       H  0.68434787  0.14733884  0.16275243     0.40500
H1414       H  0.65886136  0.17592584  0.15587474     0.35400
C1415       C  0.62533148  0.06301671  0.10804658    -0.26300
C1416       C  0.61223991  0.08547114  0.12678558    -0.14400
C1417       C  0.58060010  0.08252500  0.13265167     0.36200
C1418       C  0.56290659  0.06345935  0.11444766    -0.25800
C1419       C  0.57587121  0.04566758  0.09167324    -0.15000
C1420       C  0.60775429  0.04378945  0.09020262     0.37300
N1421       N  0.62311614  0.02283551  0.07082216    -0.89300
H1422       H  0.64963741  0.06225403  0.10510348     0.18400
H1423       H  0.53860833  0.06342984  0.11763968     0.18400
N1424       N  0.56614284  0.09731363  0.15758587    -0.88300
H1425       H  0.61953153  0.02890080  0.04820627     0.35800
H1426       H  0.61453085  0.00107681  0.07481290     0.40900
H1427       H  0.55703934  0.08063505  0.17183001     0.40500
H1428       H  0.54814040  0.11022211  0.14910678     0.35400
C1429       C  0.60171406  0.08642576  0.84628206    -0.26300
C1430       C  0.60958323  0.11775497  0.84442334    -0.14400
C1431       C  0.62960653  0.12585985  0.82013948     0.36200
C1432       C  0.64480657  0.10327051  0.80388356    -0.25800
C1433       C  0.63892870  0.07243378  0.80857527    -0.15000
C1434       C  0.61628732  0.06392752  0.82935078     0.37300
N1435       N  0.60772322  0.03281151  0.83447462    -0.89300
H1436       H  0.58365760  0.07859977  0.86078388     0.18400
H1437       H  0.66121166  0.10997651  0.78686469     0.18400
N1438       N  0.63452966  0.15649880  0.81029910    -0.88300
H1439       H  0.61305156  0.02736488  0.85694200     0.35800
H1440       H  0.61995499  0.01786210  0.82092478     0.40900
H1441       H  0.64136654  0.17019294  0.82815608     0.40500
H1442       H  0.61461918  0.16487265  0.80067427     0.35400
C1443       C  0.65063528  0.15377248  0.88336435    -0.26300
C1444       C  0.61937463  0.16023529  0.88524253    -0.14400
C1445       C  0.61040904  0.18264841  0.90672686     0.36200
C1446       C  0.63206000  0.19893866  0.92326175    -0.25800
C1447       C  0.66297725  0.19366172  0.91947715    -0.15000
C1448       C  0.67235413  0.17053300  0.89952656     0.37300
N1449       N  0.70393356  0.16323034  0.89660860    -0.89300
H1450       H  0.65863585  0.13518704  0.86975758     0.18400
H1451       H  0.62452697  0.21588123  0.93930324     0.18400
N1452       N  0.57911047  0.18929582  0.91168098    -0.88300
H1453       H  0.70718882  0.14607768  0.88061690     0.35800
H1454       H  0.71128704  0.15447631  0.91739818     0.40900
H1455       H  0.57552864  0.21234764  0.90721870     0.40500
H1456       H  0.57427183  0.18531838  0.93455086     0.35400
C1457       C  0.53189897  0.10899616  0.92068125    -0.26300
C1458       C  0.54867252  0.08664658  0.93601444    -0.14400
C1459       C  0.58037006  0.08540576  0.93114032     0.36200
C1460       C  0.59374764  0.10492779  0.91043904    -0.25800
C1461       C  0.57686478  0.12517792  0.89228079    -0.15000
C1462       C  0.54563534  0.12882033  0.89960885     0.37300
N1463       N  0.52795298  0.15327812  0.88751690    -0.89300
H1464       H  0.50795339  0.11138806  0.92530454     0.18400
H1465       H  0.61787779  0.10260800  0.90679755     0.18400
N1466       N  0.59986974  0.06365381  0.94551943    -0.88300
H1467       H  0.52060223  0.16660012  0.90561054     0.35800
H1468       H  0.50868391  0.14417364  0.87727306     0.40900
H1469       H  0.59218036  0.04174859  0.94080365     0.40500
H1470       H  0.60030200  0.06749277  0.96886810     0.35400
C1471       C  0.53868656  0.16877969  0.80530914    -0.26300
C1472       C  0.54725465  0.19905662  0.80112858    -0.14400
C1473       C  0.56897913  0.21188610  0.82049165     0.36200
C1474       C  0.58276762  0.19391218  0.84249938    -0.25800
C1475       C  0.57564682  0.16274330  0.84624086    -0.15000
C1476       C  0.55283392  0.15046089  0.82711207     0.37300
N1477       N  0.54462413  0.11905479  0.82894813    -0.89300
H1478       H  0.52183162  0.15877301  0.79056396     0.18400
H1479       H  0.60082246  0.20463208  0.85484661     0.18400
N1480       N  0.57772536  0.24314443  0.81839544    -0.88300
H1481       H  0.54912068  0.10912677  0.80795452     0.35800
H1482       H  0.52132822  0.11757789  0.83265486     0.40900
H1483       H  0.55830235  0.25662974  0.81974051     0.40500
H1484       H  0.58839143  0.24698337  0.79763768     0.35400
C1485       C  0.38036400  0.08462369  0.08165303    -0.26300
C1486       C  0.37986508  0.11612632  0.07521429    -0.14400
C1487       C  0.39882742  0.12660575  0.05115241     0.36200
C1488       C  0.41792606  0.10639899  0.03569669    -0.25800
C1489       C  0.41945935  0.07580782  0.04398580    -0.15000
C1490       C  0.39973631  0.06474803  0.06660893     0.37300
N1491       N  0.39911837  0.03333458  0.07525066    -0.89300
H1492       H  0.36777960  0.07502754  0.10028363     0.18400
H1493       H  0.43296261  0.11511060  0.01832332     0.18400
N1494       N  0.39967545  0.15809053  0.04299594    -0.88300
H1495       H  0.41980448  0.02738041  0.08503554     0.35800
H1496       H  0.39566569  0.02027386  0.05583405     0.40900
H1497       H  0.42181963  0.16585908  0.04593031     0.40500
H1498       H  0.39434807  0.16009971  0.01998063     0.35400
C1499       C  0.31183206  0.17993987  0.03695657    -0.26300
C1500       C  0.30295685  0.20552833  0.05353243    -0.14400
C1501       C  0.31067063  0.20709932  0.08455647     0.36200
C1502       C  0.32855388  0.18450381  0.09739640    -0.25800
C1503       C  0.34085478  0.16055905  0.08014654    -0.15000
C1504       C  0.32972550  0.15700190  0.05009596     0.37300
N1505       N  0.33482838  0.12981938  0.03321868    -0.89300
H1506       H  0.30452127  0.17749467  0.01363368     0.18400
H1507       H  0.33463617  0.18688743  0.12100564     0.18400
N1508       N  0.30213184  0.23200818  0.10348271    -0.88300
H1509       H  0.34483304  0.13571648  0.01254968     0.35800
H1510       H  0.31382349  0.12004757  0.02846404     0.40900
H1511       H  0.27859195  0.23257858  0.10535783     0.40500
H1512       H  0.30992365  0.25220748  0.09372177     0.35400
C1513       C  0.40761380  0.90539015  0.09124369    -0.26300
C1514       C  0.42087905  0.88694280  0.11407705    -0.14400
C1515       C  0.45293538  0.88947606  0.11812823     0.36200
C1516       C  0.46993742  0.90819363  0.09868411    -0.25800
C1517       C  0.45606465  0.92566742  0.07619990    -0.15000
C1518       C  0.42446744  0.92439959  0.07246979     0.37300
N1519       N  0.40843888  0.94256394  0.05045595    -0.89300
H1520       H  0.38332876  0.90517106  0.08800766     0.18400
H1521       H  0.49415394  0.91005797  0.10205906     0.18400
N1522       N  0.46858677  0.87528475  0.14282903    -0.88300
H1523       H  0.39804786  0.92777921  0.03520553     0.35800
H1524       H  0.42283678  0.95631934  0.03767041     0.40900
H1525       H  0.47941185  0.89208819  0.15548474     0.40500
H1526       H  0.48537444  0.86126370  0.13382489     0.35400
C1527       C  0.43300274  0.82435188  0.14558148    -0.26300
C1528       C  0.41320584  0.84659947  0.15745027    -0.14400
C1529       C  0.40673909  0.84502185  0.18918467     0.36200
C1530       C  0.42323211  0.82534686  0.20772047    -0.25800
C1531       C  0.44535191  0.80622790  0.19594504    -0.15000
C1532       C  0.44992075  0.80501605  0.16438987     0.37300
N1533       N  0.47143628  0.78485425  0.15065994    -0.89300
H1534       H  0.43685720  0.82338300  0.12134908     0.18400
H1535       H  0.41866229  0.82509549  0.23189494     0.18400
N1536       N  0.38268111  0.86176063  0.20305784    -0.88300
H1537       H  0.45941378  0.76998031  0.13674487     0.35800
H1538       H  0.48244086  0.77145355  0.16682252     0.40900
H1539       H  0.36766577  0.84633073  0.21299458     0.40500
H1540       H  0.39177692  0.87475355  0.22061021     0.35400
C1541       C  0.63980099  0.91017929  0.85576581    -0.26300
C1542       C  0.65560517  0.89464587  0.87898344    -0.14400
C1543       C  0.68689441  0.90217596  0.88270062     0.36200
C1544       C  0.70155562  0.92085332  0.86131001    -0.25800
C1545       C  0.68565064  0.93404769  0.83729507    -0.15000
C1546       C  0.65415946  0.92938789  0.83502316     0.37300
N1547       N  0.63573815  0.94413148  0.81237301    -0.89300
H1548       H  0.61574114  0.90706723  0.85324577     0.18400
H1549       H  0.72545215  0.92565758  0.86394176     0.18400
N1550       N  0.70378500  0.89267553  0.90879685    -0.88300
H1551       H  0.62695241  0.92732206  0.79825032     0.35800
H1552       H  0.64811583  0.95888013  0.79859596     0.40900
H1553       H  0.71145987  0.91202271  0.92005228     0.40500
H1554       H  0.72269689  0.88054135  0.90140616     0.35400
C1555       C  0.63276110  0.91775988  0.93966410    -0.26300
C1556       C  0.61789993  0.89786966  0.91935667    -0.14400
C1557       C  0.58674553  0.90411971  0.91333447     0.36200
C1558       C  0.57063289  0.92313771  0.93242133    -0.25800
C1559       C  0.58472081  0.93893461  0.95575869    -0.15000
C1560       C  0.61642681  0.93786040  0.95835783     0.37300
N1561       N  0.63177314  0.95649512  0.98012074    -0.89300
H1562       H  0.65705409  0.91630590  0.94220239     0.18400
H1563       H  0.54665951  0.92631975  0.92819846     0.18400
N1564       N  0.57129002  0.89304062  0.88703296    -0.88300
H1565       H  0.65513687  0.95301843  0.97895628     0.35800
H1566       H  0.62497503  0.94940437  0.00171204     0.40900
H1567       H  0.56404447  0.91166884  0.87415834     0.40500
H1568       H  0.55202789  0.88122532  0.89412834     0.35400
C1569       C  0.40805758  0.90940167  0.91006602    -0.26300
C1570       C  0.39354182  0.92439938  0.88571319    -0.14400
C1571       C  0.40255741  0.95492481  0.87984430     0.36200
C1572       C  0.42165808  0.97023573  0.90048394    -0.25800
C1573       C  0.43329472  0.95569904  0.92642233    -0.15000
C1574       C  0.42626912  0.92465806  0.93104295     0.37300
N1575       N  0.43672028  0.90868904  0.95761670    -0.89300
H1576       H  0.40310569  0.88571863  0.91420659     0.18400
H1577       H  0.42793030  0.99354228  0.89575994     0.18400
N1578       N  0.39419673  0.97016311  0.85236183    -0.88300
H1579       H  0.43010541  0.88592073  0.95720700     0.35800
H1580       H  0.42599351  0.91832211  0.97637346     0.40900
H1581       H  0.41397572  0.97585051  0.84068531     0.40500
H1582       H  0.38318412  0.99034254  0.85806876     0.35400
C1583       C  0.33343733  0.94856145  0.85721245    -0.26300
C1584       C  0.35017822  0.92434538  0.84459925    -0.14400
C1585       C  0.34315409  0.91622244  0.81388995     0.36200
C1586       C  0.32043373  0.93182509  0.79794484    -0.25800
C1587       C  0.30380594  0.95509661  0.81131724    -0.15000
C1588       C  0.31086740  0.96393325  0.84103689     0.37300
N1589       N  0.29411338  0.98755034  0.85559172    -0.89300
H1590       H  0.33728734  0.95505248  0.88054990     0.18400
H1591       H  0.31510509  0.92491110  0.77499648     0.18400
N1592       N  0.35689691  0.89101156  0.79888813    -0.88300
H1593       H  0.30937799  0.00431952  0.86234591     0.35800
H1594       H  0.28404045  0.97846413  0.87505735     0.40900
H1595       H  0.36749433  0.89909343  0.77925786     0.40500
H1596       H  0.33998398  0.87588406  0.79219833     0.35400
C1597       C  0.17848037  0.67414808  0.09992103    -0.26300
C1598       C  0.15898368  0.65614605  0.08177775    -0.14400
C1599       C  0.16055128  0.66068510  0.04969465     0.36200
C1600       C  0.17936455  0.68353831  0.03771487    -0.25800
C1601       C  0.19708451  0.70190699  0.05645968    -0.15000
C1602       C  0.19741904  0.69632025  0.08778676     0.37300
N1603       N  0.21544265  0.71399810  0.10812103    -0.89300
H1604       H  0.17811535  0.67167571  0.12437239     0.18400
H1605       H  0.17914676  0.68780731  0.01348277     0.18400
N1606       N  0.14152670  0.64469023  0.02899778    -0.88300
H1607       H  0.20968707  0.73686377  0.10543863     0.35800
H1608       H  0.23819194  0.71116948  0.10238792     0.40900
H1609       H  0.15537650  0.63341865  0.01350248     0.40500
H1610       H  0.12853575  0.66045721  0.01688449     0.35400
C1611       C  0.38426613  0.84143364  0.08405169    -0.26300
C1612       C  0.37732169  0.84768806  0.11475489    -0.14400
C1613       C  0.35164672  0.83250472  0.12712871     0.36200
C1614       C  0.33178686  0.81635232  0.10824864    -0.25800
C1615       C  0.33697412  0.81425135  0.07710811    -0.15000
C1616       C  0.36421479  0.82583422  0.06509204     0.37300
N1617       N  0.37227983  0.82233538  0.03371900    -0.89300
H1618       H  0.40526539  0.84899911  0.07405023     0.18400
H1619       H  0.31112752  0.80710815  0.11774578     0.18400
N1620       N  0.34460153  0.83462955  0.15865663    -0.88300
H1621       H  0.37205205  0.84386780  0.02366643     0.35800
H1622       H  0.35664472  0.80900864  0.02207155     0.40900
H1623       H  0.34396082  0.81265283  0.16766463     0.40500
H1624       H  0.32302185  0.84408017  0.16083088     0.35400
C1625       C  0.11300942  0.82563764  0.91085469    -0.26300
C1626       C  0.12369432  0.84501583  0.88746918    -0.14400
C1627       C  0.15520290  0.84319842  0.88066445     0.36200
C1628       C  0.17480665  0.82716637  0.90003478    -0.25800
C1629       C  0.16426018  0.81208371  0.92599193    -0.15000
C1630       C  0.13285666  0.81067875  0.93092142     0.37300
N1631       N  0.12093958  0.79445204  0.95645445    -0.89300
H1632       H  0.08895417  0.82406941  0.91515005     0.18400
H1633       H  0.19881172  0.82746602  0.89509949     0.18400
N1634       N  0.16775365  0.85640254  0.85374077    -0.88300
H1635       H  0.10609081  0.77789284  0.94840749     0.35800
H1636       H  0.10846873  0.80969930  0.96955590     0.40900
H1637       H  0.17755707  0.83907746  0.84097474     0.40500
H1638       H  0.18502857  0.87128464  0.86007460     0.35400
C1639       C  0.34173575  0.90228389  0.91929762    -0.26300
C1640       C  0.34520828  0.89169583  0.88916233    -0.14400
C1641       C  0.32338273  0.87040204  0.87889925     0.36200
C1642       C  0.30373943  0.85639026  0.89953931    -0.25800
C1643       C  0.30404450  0.86377195  0.93041492    -0.15000
C1644       C  0.32233032  0.88802574  0.94014910     0.37300
N1645       N  0.32183170  0.89774546  0.97122701    -0.89300
H1646       H  0.35433136  0.92167060  0.92719261     0.18400
H1647       H  0.28857249  0.83896262  0.89129933     0.18400
N1648       N  0.32178121  0.86183858  0.84771053    -0.88300
H1649       H  0.33576124  0.91664590  0.97431989     0.35800
H1650       H  0.33118720  0.88031409  0.98438701     0.40900
H1651       H  0.30007633  0.86697271  0.83976797     0.40500
H1652       H  0.32473302  0.83836911  0.84618800     0.35400
C1653       C  0.17449937  0.88768049  0.06261465    -0.26300
C1654       C  0.19243694  0.86419225  0.07364653    -0.14400
C1655       C  0.19327572  0.85834892  0.10502994     0.36200
C1656       C  0.17409759  0.87466768  0.12421822    -0.25800
C1657       C  0.15232772  0.89558803  0.11311387    -0.15000
C1658       C  0.15530535  0.90413122  0.08157786     0.37300
N1659       N  0.14170064  0.93023528  0.06760165    -0.89300
H1660       H  0.17521775  0.89326409  0.03863829     0.18400
H1661       H  0.17495107  0.86935176  0.14814938     0.18400
N1662       N  0.21312749  0.83607061  0.11828857    -0.88300
H1663       H  0.12216388  0.92449860  0.05568660     0.35800
H1664       H  0.13966877  0.94895139  0.08163446     0.40900
H1665       H  0.22716080  0.82610979  0.10213573     0.40500
H1666       H  0.19966938  0.81879282  0.12739332     0.35400
C1667       C  0.18098201  0.93403851  0.20437649    -0.26300
C1668       C  0.19430344  0.96013361  0.19229194    -0.14400
C1669       C  0.18444087  0.97085593  0.16371955     0.36200
C1670       C  0.16339328  0.95393638  0.14721077    -0.25800
C1671       C  0.14951349  0.92751341  0.15881859    -0.15000
C1672       C  0.15960507  0.91726133  0.18807106     0.37300
N1673       N  0.15064947  0.88869640  0.20082460    -0.89300
H1674       H  0.18859586  0.92525015  0.22607356     0.18400
H1675       H  0.15799201  0.96167837  0.12471817     0.18400
N1676       N  0.19614953  0.99862858  0.15108055    -0.88300
H1677       H  0.14088913  0.89266736  0.22202536     0.35800
H1678       H  0.16996425  0.87538529  0.20413909     0.40900
H1679       H  0.18878653  0.01636037  0.16489958     0.40500
H1680       H  0.18712243  0.00283401  0.12954581     0.35400
C1681       C  0.31998772  0.10356266  0.11053109    -0.26300
C1682       C  0.34297240  0.12324295  0.12107016    -0.14400
C1683       C  0.34269769  0.12997812  0.15272681     0.36200
C1684       C  0.32432272  0.11310795  0.17253859    -0.25800
C1685       C  0.30445662  0.09085100  0.16190574    -0.15000
C1686       C  0.30089694  0.08744291  0.13023864     0.37300
N1687       N  0.27822166  0.06806182  0.11717521    -0.89300
H1688       H  0.31733733  0.10001762  0.08640321     0.18400
H1689       H  0.32626955  0.11704719  0.19670391     0.18400
N1690       N  0.35958627  0.15466482  0.16519834    -0.88300
H1691       H  0.26496627  0.08145251  0.10273696     0.35800
H1692       H  0.26322081  0.06008539  0.13362981     0.40900
H1693       H  0.37358225  0.14614916  0.18237161     0.40500
H1694       H  0.34437810  0.16978911  0.17516059     0.35400
C1695       C  0.35033957  0.93596007  0.33221033    -0.26300
C1696       C  0.31939919  0.93343577  0.32534821    -0.14400
C1697       C  0.30260726  0.91102827  0.34126283     0.36200
C1698       C  0.31686921  0.89257713  0.36338725    -0.25800
C1699       C  0.34768070  0.89636591  0.37159037    -0.15000
C1700       C  0.36443138  0.91795230  0.35433638     0.37300
N1701       N  0.39619089  0.92199410  0.35923350    -0.89300
H1702       H  0.36427936  0.95234164  0.32031597     0.18400
H1703       H  0.30341763  0.87499263  0.37385502     0.18400
N1704       N  0.27116184  0.90605928  0.33540481    -0.88300
H1705       H  0.40009356  0.94467963  0.36485159     0.35800
H1706       H  0.40742212  0.91755485  0.33888145     0.40900
H1707       H  0.26846910  0.90073633  0.31249631     0.40500
H1708       H  0.25935022  0.92601543  0.34015359     0.35400
C1709       C  0.37938174  0.93882172  0.18428890    -0.26300
C1710       C  0.34884927  0.94390517  0.17797529    -0.14400
C1711       C  0.33459405  0.92600886  0.15558506     0.36200
C1712       C  0.35039128  0.90214836  0.14200561    -0.25800
C1713       C  0.38044692  0.89503364  0.15018485    -0.15000
C1714       C  0.39536267  0.91539532  0.17028780     0.37300
N1715       N  0.42676075  0.91196877  0.17733816    -0.89300
H1716       H  0.39112668  0.95295883  0.20050857     0.18400
H1717       H  0.33883375  0.88984978  0.12434938     0.18400
N1718       N  0.30408066  0.93187568  0.14622928    -0.88300
H1719       H  0.42910499  0.90940167  0.20079532     0.35800
H1720       H  0.43781517  0.93199873  0.17104857     0.40900
H1721       H  0.29133769  0.91223873  0.14999006     0.40500
H1722       H  0.30412958  0.93636469  0.12292187     0.35400
C1723       C  0.33628633  0.10932899  0.31537685    -0.26300
C1724       C  0.35233374  0.08555771  0.30150328    -0.14400
C1725       C  0.38393139  0.08415509  0.30619318     0.36200
C1726       C  0.39786136  0.10495578  0.32568106    -0.25800
C1727       C  0.38112455  0.12610379  0.34311781    -0.15000
C1728       C  0.35015817  0.12982702  0.33519769     0.37300
N1729       N  0.33269583  0.15508719  0.34560551    -0.89300
H1730       H  0.31238409  0.11237005  0.31088149     0.18400
H1731       H  0.42200612  0.10296261  0.32899480     0.18400
N1732       N  0.40262096  0.06184919  0.29195945    -0.88300
H1733       H  0.31348810  0.14671871  0.35664528     0.35800
H1734       H  0.32541965  0.16746665  0.32666859     0.40900
H1735       H  0.40010326  0.06375740  0.26846965     0.40500
H1736       H  0.39567741  0.04030097  0.29909695     0.35400
C1737       C  0.58377732  0.80208634  0.69829264    -0.26300
C1738       C  0.55262162  0.80489339  0.70159115    -0.14400
C1739       C  0.53683088  0.82526788  0.68275073     0.36200
C1740       C  0.55246821  0.84255981  0.66100837    -0.25800
C1741       C  0.58415709  0.84014994  0.65708735    -0.15000
C1742       C  0.59984753  0.82017529  0.67781400     0.37300
N1743       N  0.63211252  0.81850083  0.68045295    -0.89300
H1744       H  0.59624050  0.78736210  0.71362116     0.18400
H1745       H  0.53935637  0.85869603  0.64803533     0.18400
N1746       N  0.50474103  0.82858686  0.68569045    -0.88300
H1747       H  0.64032226  0.83833418  0.69024890     0.35800
H1748       H  0.64240324  0.81424370  0.65977820     0.40900
H1749       H  0.49486424  0.82345356  0.66479001     0.40500
H1750       H  0.50008607  0.85131186  0.69051244     0.35400
C1751       C  0.40742906  0.82908824  0.84128994    -0.26300
C1752       C  0.42582118  0.83937075  0.81757126    -0.14400
C1753       C  0.42813734  0.87086638  0.81228931     0.36200
C1754       C  0.41071572  0.89099873  0.82944630    -0.25800
C1755       C  0.38980250  0.88079412  0.85154478    -0.15000
C1756       C  0.39082652  0.84931213  0.85929336     0.37300
N1757       N  0.37773860  0.83775148  0.88670818    -0.89300
H1758       H  0.40745181  0.80518032  0.84724120     0.18400
H1759       H  0.41231929  0.91500185  0.82433002     0.18400
N1760       N  0.44718169  0.88308864  0.78899435    -0.88300
H1761       H  0.36335964  0.81977407  0.88119921     0.35800
H1762       H  0.39512744  0.82894841  0.90021347     0.40900
H1763       H  0.44147495  0.87283493  0.76844816     0.40500
H1764       H  0.46968030  0.87801381  0.79415008     0.35400
C1765       C  0.57276158  0.81528094  0.88695852    -0.26300
C1766       C  0.57313910  0.81249702  0.85542716    -0.14400
C1767       C  0.59716156  0.82593059  0.83896399     0.36200
C1768       C  0.61807320  0.84460078  0.85392813    -0.25800
C1769       C  0.61558961  0.85084912  0.88515378    -0.15000
C1770       C  0.59385055  0.83371247  0.90194759     0.37300
N1771       N  0.59176619  0.83644835  0.93418367    -0.89300
H1772       H  0.55518366  0.80420044  0.90004835     0.18400
H1773       H  0.63646843  0.85400993  0.84084062     0.18400
N1774       N  0.60038557  0.82046035  0.80700077    -0.88300
H1775       H  0.59448054  0.81485160  0.94371314     0.35800
H1776       H  0.57008855  0.84416788  0.93963134     0.40900
H1777       H  0.60493985  0.79735628  0.80426151     0.40500
H1778       H  0.61896555  0.83219555  0.79817265     0.35400
C1779       C  0.42369310  0.31253842  0.61734921    -0.26300
C1780       C  0.42659065  0.31407322  0.64885145    -0.14400
C1781       C  0.40490499  0.33052315  0.66552813     0.36200
C1782       C  0.38395987  0.34877953  0.65025236    -0.25800
C1783       C  0.38308094  0.35051124  0.61834227    -0.15000
C1784       C  0.40177977  0.32980613  0.60205441     0.37300
N1785       N  0.40027296  0.32799783  0.56967838    -0.89300
H1786       H  0.43920584  0.29876114  0.60430746     0.18400
H1787       H  0.36764723  0.36086664  0.66376919     0.18400
N1788       N  0.40384327  0.32835986  0.69802952    -0.88300
H1789       H  0.39542313  0.30554773  0.56389592     0.35800
H1790       H  0.42153251  0.33343622  0.56083021     0.40900
H1791       H  0.39855209  0.30591148  0.70363321     0.40500
H1792       H  0.38631762  0.34169436  0.70666182     0.35400
C1793       C  0.41596899  0.39511821  0.58584427    -0.26300
C1794       C  0.38424997  0.39462303  0.58063095    -0.14400
C1795       C  0.37275131  0.41687136  0.56007123     0.36200
C1796       C  0.39261626  0.43611624  0.54391402    -0.25800
C1797       C  0.42385051  0.43516983  0.54909109    -0.15000
C1798       C  0.43538247  0.41447020  0.57040709     0.37300
N1799       N  0.46694438  0.41300599  0.57753900    -0.89300
H1800       H  0.42651025  0.38173031  0.60345050     0.18400
H1801       H  0.38344418  0.45274878  0.52823070     0.18400
N1802       N  0.34086892  0.42078489  0.55617400    -0.88300
H1803       H  0.47319290  0.43371896  0.58699080     0.35800
H1804       H  0.47910723  0.40960228  0.55753045     0.40900
H1805       H  0.33578995  0.41823270  0.53317747     0.40500
H1806       H  0.33539491  0.44300870  0.56228632     0.35400
C1807       C  0.57303761  0.41925481  0.38198038    -0.26300
C1808       C  0.57497137  0.38755935  0.38756982    -0.14400
C1809       C  0.55465238  0.37575781  0.40985717     0.36200
C1810       C  0.53881150  0.39547186  0.42933572    -0.25800
C1811       C  0.54140195  0.42694898  0.42621287    -0.15000
C1812       C  0.55743143  0.43876714  0.40129302     0.37300
N1813       N  0.55799266  0.47067337  0.39481233    -0.89300
H1814       H  0.58397435  0.42971064  0.36274074     0.18400
H1815       H  0.52522025  0.38609160  0.44753723     0.18400
N1816       N  0.55067566  0.34375455  0.41353545    -0.88300
H1817       H  0.56794231  0.48196044  0.41304145     0.35800
H1818       H  0.53569968  0.47826308  0.39247640     0.40900
H1819       H  0.52782266  0.33879075  0.41010201     0.40500
H1820       H  0.55609675  0.33791250  0.43590223     0.35400
C1821       C  0.42904244  0.66457477  0.34118422    -0.26300
C1822       C  0.42515887  0.66785176  0.30995862    -0.14400
C1823       C  0.40142654  0.65212568  0.29550148     0.36200
C1824       C  0.38301112  0.63247287  0.31268665    -0.25800
C1825       C  0.38879420  0.62641536  0.34376618    -0.15000
C1826       C  0.41106530  0.64476755  0.35819077     0.37300
N1827       N  0.41638551  0.64266296  0.39016105    -0.89300
H1828       H  0.44638420  0.67760798  0.35266286     0.18400
H1829       H  0.36453089  0.62159249  0.30104376     0.18400
N1830       N  0.39596842  0.65459337  0.26344747    -0.88300
H1831       H  0.43902996  0.63684322  0.39376909     0.35800
H1832       H  0.41277055  0.66408921  0.39955912     0.40900
H1833       H  0.41174760  0.66869775  0.25285540     0.40500
H1834       H  0.37476100  0.66464007  0.26045917     0.35400
C1835       C  0.37924799  0.55488795  0.39547787    -0.26300
C1836       C  0.39204667  0.57729496  0.37626707    -0.14400
C1837       C  0.42391487  0.57528908  0.37130345     0.36200
C1838       C  0.44192505  0.55904764  0.39181339    -0.25800
C1839       C  0.42899587  0.54181098  0.41501931    -0.15000
C1840       C  0.39745950  0.53750619  0.41533205     0.37300
N1841       N  0.38392215  0.51744655  0.43721620    -0.89300
H1842       H  0.35489358  0.55354257  0.39763654     0.18400
H1843       H  0.46633614  0.56009917  0.38970079     0.18400
N1844       N  0.43827386  0.58813622  0.34510851    -0.88300
H1845       H  0.36045029  0.51691759  0.43441172     0.35800
H1846       H  0.38797058  0.52640663  0.45874028     0.40900
H1847       H  0.44793494  0.57043893  0.33273766     0.40500
H1848       H  0.45595269  0.60211165  0.35229831     0.35400
C1849       C  0.44939649  0.63618711  0.60162810    -0.26300
C1850       C  0.41856031  0.62965851  0.60779361    -0.14400
C1851       C  0.40455763  0.60767114  0.58886255     0.36200
C1852       C  0.42199026  0.58973484  0.56927453    -0.25800
C1853       C  0.45320703  0.59390217  0.56638453    -0.15000
C1854       C  0.46686905  0.61842473  0.58170772     0.37300
N1855       N  0.49843479  0.62550406  0.57843096    -0.89300
H1856       H  0.46064208  0.65487034  0.61267359     0.18400
H1857       H  0.41100104  0.57182234  0.55661579     0.18400
N1858       N  0.37266327  0.60241239  0.59032065    -0.88300
H1859       H  0.49994227  0.64723104  0.56892938     0.35800
H1860       H  0.50908124  0.61084169  0.56331079     0.40900
H1861       H  0.36901820  0.57962045  0.59589189     0.40500
H1862       H  0.36358995  0.60632087  0.56875289     0.35400
C1863       C  0.41440652  0.69857800  0.65773170    -0.26300
C1864       C  0.42106775  0.66746227  0.65297128    -0.14400
C1865       C  0.44491241  0.65466061  0.67070604     0.36200
C1866       C  0.45997557  0.67207383  0.69253674    -0.25800
C1867       C  0.45154474  0.70208195  0.69832644    -0.15000
C1868       C  0.42919375  0.71564447  0.68008524     0.37300
N1869       N  0.42103394  0.74677488  0.68443589    -0.89300
H1870       H  0.39600633  0.70971523  0.64612259     0.18400
H1871       H  0.47731018  0.66133934  0.70628140     0.18400
N1872       N  0.45311564  0.62336871  0.66764687    -0.88300
H1873       H  0.39795396  0.74768614  0.68948808     0.35800
H1874       H  0.42451775  0.75835386  0.66398886     0.40900
H1875       H  0.45007581  0.61266741  0.68863550     0.40500
H1876       H  0.47609413  0.62226378  0.66219133     0.35400
C1877       C  0.59823220  0.35765626  0.70589644    -0.26300
C1878       C  0.57633922  0.34167075  0.68953958    -0.14400
C1879       C  0.57403955  0.34651544  0.65794807     0.36200
C1880       C  0.59302201  0.36758716  0.64386437    -0.25800
C1881       C  0.61493997  0.38476639  0.65972261    -0.15000
C1882       C  0.61769853  0.37877201  0.69158571     0.37300
N1883       N  0.64115901  0.39193062  0.70954482    -0.89300
H1884       H  0.60062746  0.35336846  0.73000057     0.18400
H1885       H  0.59053604  0.37065383  0.61959931     0.18400
N1886       N  0.55307849  0.33021040  0.63902278    -0.88300
H1887       H  0.65417221  0.37441622  0.71890363     0.35800
H1888       H  0.63105216  0.40365707  0.72742574     0.40900
H1889       H  0.54024752  0.31442227  0.65107036     0.40500
H1890       H  0.56574622  0.31770435  0.62345517     0.35400
C1891       C  0.58345887  0.43407281  0.62943340    -0.26300
C1892       C  0.61454690  0.43055883  0.62255072    -0.14400
C1893       C  0.62632589  0.45041331  0.59982634     0.36200
C1894       C  0.60675424  0.46747948  0.58120752    -0.25800
C1895       C  0.57534952  0.46697295  0.58543117    -0.15000
C1896       C  0.56380682  0.45109957  0.61079235     0.37300
N1897       N  0.53189015  0.45074416  0.61664663    -0.89300
H1898       H  0.57374497  0.42279120  0.64889556     0.18400
H1899       H  0.61628073  0.48070769  0.56277162     0.18400
N1900       N  0.65814328  0.45234186  0.59442278    -0.88300
H1901       H  0.52707368  0.43881969  0.63661115     0.35800
H1902       H  0.52209794  0.43837070  0.59909460     0.40900
H1903       H  0.66478204  0.47487495  0.59752767     0.40500
H1904       H  0.66231458  0.44663915  0.57183050     0.35400
C1905       C  0.64784686  0.44643616  0.67936997    -0.26300
C1906       C  0.65870852  0.42609758  0.65705664    -0.14400
C1907       C  0.69037906  0.42790123  0.65012692     0.36200
C1908       C  0.70969786  0.44465181  0.66855205    -0.25800
C1909       C  0.69888728  0.46198146  0.69239477    -0.15000
C1910       C  0.66745255  0.46388734  0.69741587     0.37300
N1911       N  0.65472191  0.48218376  0.72107845    -0.89300
H1912       H  0.62378174  0.44763355  0.68382676     0.18400
H1913       H  0.73376327  0.44449671  0.66370979     0.18400
N1914       N  0.70355973  0.41457239  0.62370572    -0.88300
H1915       H  0.64118260  0.49873338  0.71076450     0.35800
H1916       H  0.67147502  0.49371557  0.73306914     0.40900
H1917       H  0.71334246  0.43178909  0.61059984     0.40500
H1918       H  0.72098284  0.40005582  0.63067976     0.35400
C1919       C  0.59898997  0.69881981  0.34607812    -0.26300
C1920       C  0.56870254  0.69659475  0.35508267    -0.14400
C1921       C  0.56082777  0.67656470  0.37870396     0.36200
C1922       C  0.58312609  0.65791483  0.39129751    -0.25800
C1923       C  0.61328261  0.65716590  0.38015517    -0.15000
C1924       C  0.62133084  0.67996827  0.35873471     0.37300
N1925       N  0.65192715  0.68314850  0.34860526    -0.89300
H1926       H  0.60521051  0.71462251  0.32822861     0.18400
H1927       H  0.57612746  0.64406308  0.41025775     0.18400
N1928       N  0.53032903  0.67331161  0.38963718    -0.88300
H1929       H  0.65239318  0.68045760  0.32507835     0.35800
H1930       H  0.65901474  0.70522710  0.35343947     0.40900
H1931       H  0.51527589  0.68767610  0.37837713     0.40500
H1932       H  0.53014822  0.67975170  0.41241981     0.35400
C1933       C  0.59731378  0.59315688  0.39876390    -0.26300
C1934       C  0.62190887  0.60865831  0.41203483    -0.14400
C1935       C  0.63025939  0.59973244  0.44196118     0.36200
C1936       C  0.61001577  0.58244520  0.45960673    -0.25800
C1937       C  0.58227585  0.57298541  0.44760590    -0.15000
C1938       C  0.57665154  0.57711522  0.41642801     0.37300
N1939       N  0.54989864  0.56563806  0.40213245    -0.89300
H1940       H  0.59182887  0.59676221  0.37514232     0.18400
H1941       H  0.61578909  0.57682524  0.48284745     0.18400
N1942       N  0.65938878  0.60687426  0.45420407    -0.88300
H1943       H  0.53101670  0.57579179  0.41208394     0.35800
H1944       H  0.54882176  0.54223040  0.40585738     0.40900
H1945       H  0.67051700  0.58646952  0.45899930     0.40500
H1946       H  0.65631994  0.61821503  0.47472396     0.35400
C1947       C  0.16993744  0.45773689  0.79595595    -0.26300
C1948       C  0.20026124  0.44912337  0.79869853    -0.14400
C1949       C  0.20831406  0.42642950  0.81976391     0.36200
C1950       C  0.18612566  0.41386921  0.83837098    -0.25800
C1951       C  0.15564118  0.42399249  0.83818245    -0.15000
C1952       C  0.14757703  0.44499392  0.81488388     0.37300
N1953       N  0.11672480  0.45332368  0.80993369    -0.89300
H1954       H  0.16362215  0.47495241  0.77949092     0.18400
H1955       H  0.19347076  0.39531731  0.85264098     0.18400
N1956       N  0.23890536  0.41564190  0.82329681    -0.88300
H1957       H  0.11496107  0.47693469  0.81089517     0.35800
H1958       H  0.11089669  0.44683656  0.78792180     0.40900
H1959       H  0.25377207  0.42579000  0.80796453     0.40500
H1960       H  0.23902478  0.39250070  0.81822259     0.35400
C1961       C  0.36773525  0.41393718  0.64285218    -0.26300
C1962       C  0.34827247  0.39817372  0.62304633    -0.14400
C1963       C  0.31715731  0.40672956  0.62362726     0.36200
C1964       C  0.30623841  0.42592503  0.64668394    -0.25800
C1965       C  0.32554333  0.43830864  0.66871650    -0.15000
C1966       C  0.35706087  0.43257342  0.66591766     0.37300
N1967       N  0.37919280  0.44442918  0.68644904    -0.89300
H1968       H  0.39189239  0.41004352  0.64179120     0.18400
H1969       H  0.28232977  0.43127613  0.64712961     0.18400
N1970       N  0.29639670  0.39680028  0.60082390    -0.88300
H1971       H  0.37422229  0.43706537  0.70845836     0.35800
H1972       H  0.37913736  0.46810329  0.68519376     0.40900
H1973       H  0.28727389  0.41598724  0.59018937     0.40500
H1974       H  0.27867694  0.38527202  0.61151174     0.35400
C1975       C  0.35627161  0.61456729  0.70329016    -0.26300
C1976       C  0.35993593  0.58318320  0.70040365    -0.14400
C1977       C  0.37883029  0.57212177  0.67719150     0.36200
C1978       C  0.39237348  0.59238002  0.65676861    -0.25800
C1979       C  0.38659975  0.62401094  0.65746983    -0.15000
C1980       C  0.36951561  0.63492265  0.68263839     0.37300
N1981       N  0.36424427  0.66672199  0.68662371    -0.89300
H1982       H  0.34222507  0.62345000  0.72131870     0.18400
H1983       H  0.40757926  0.58263855  0.64040666     0.18400
N1984       N  0.38372503  0.54030182  0.67282914    -0.88300
H1985       H  0.37286346  0.67289773  0.70779481     0.35800
H1986       H  0.34092350  0.67057742  0.68689119     0.40900
H1987       H  0.36278979  0.52970821  0.66978467     0.40500
H1988       H  0.39415554  0.53136707  0.69216781     0.35400
C1989       C  0.33721964  0.40220634  0.08417943    -0.26300
C1990       C  0.33914195  0.39191989  0.11475630    -0.14400
C1991       C  0.31582443  0.37205343  0.12471715     0.36200
C1992       C  0.29599804  0.35899209  0.10373684    -0.25800
C1993       C  0.29775854  0.36579610  0.07271358    -0.15000
C1994       C  0.31757568  0.38879419  0.06301360     0.37300
N1995       N  0.31884957  0.39747877  0.03157366    -0.89300
H1996       H  0.35105760  0.42072013  0.07616161     0.18400
H1997       H  0.27975423  0.34238202  0.11176052     0.18400
N1998       N  0.31303324  0.36369411  0.15594837    -0.88300
H1999       H  0.33601370  0.41337333  0.02787394     0.35800
H2000       H  0.29852204  0.40841547  0.02629378     0.40900
H2001       H  0.31483423  0.34010711  0.15779166     0.40500
H2002       H  0.29143996  0.36993205  0.16327884     0.35400
C2003       C  0.41627754  0.46909702  0.10549995    -0.26300
C2004       C  0.42794765  0.45465687  0.07993478    -0.14400
C2005       C  0.42220124  0.42355480  0.07550251     0.36200
C2006       C  0.40329761  0.40831465  0.09562991    -0.25800
C2007       C  0.38820713  0.42315888  0.11962913    -0.15000
C2008       C  0.39712074  0.45373739  0.12595737     0.37300
N2009       N  0.38788713  0.46917715  0.15305704    -0.89300
H2010       H  0.42224371  0.49258111  0.10953189     0.18400
H2011       H  0.39885242  0.38458753  0.09127651     0.18400
N2012       N  0.43538192  0.40634976  0.05121842    -0.88300
H2013       H  0.39516681  0.49174476  0.15291507     0.35800
H2014       H  0.39855392  0.45882962  0.17149293     0.40900
H2015       H  0.45052050  0.41905625  0.03822537     0.40500
H2016       H  0.41783158  0.39959574  0.03688388     0.35400
C2017       C  0.60449517  0.62577101  0.81903647    -0.26300
C2018       C  0.60916854  0.62421647  0.85086483    -0.14400
C2019       C  0.59037291  0.64298993  0.86898822     0.36200
C2020       C  0.57104597  0.66434174  0.85552776    -0.25800
C2021       C  0.56872979  0.66781963  0.82387945    -0.15000
C2022       C  0.58523279  0.64740837  0.80553207     0.37300
N2023       N  0.58285311  0.64766857  0.77315932    -0.89300
H2024       H  0.61566444  0.61008530  0.80401449     0.18400
H2025       H  0.55811241  0.67880770  0.87048059     0.18400
N2026       N  0.59156718  0.64138357  0.90142367    -0.88300
H2027       H  0.59043221  0.66861792  0.76500221     0.35800
H2028       H  0.56016536  0.64469174  0.76719729     0.40900
H2029       H  0.56995594  0.63598502  0.90938181     0.40500
H2030       H  0.59730619  0.66280781  0.90971663     0.35400
C2031       C  0.57143515  0.54446909  0.89258793    -0.26300
C2032       C  0.57444824  0.54563617  0.92413820    -0.14400
C2033       C  0.59675554  0.56400214  0.93695906     0.36200
C2034       C  0.61565780  0.58115646  0.91835222    -0.25800
C2035       C  0.61361911  0.58039481  0.88625118    -0.15000
C2036       C  0.59034481  0.56197402  0.87362316     0.37300
N2037       N  0.58542976  0.56144761  0.84152690    -0.89300
H2038       H  0.55352940  0.53098682  0.88266692     0.18400
H2039       H  0.63048049  0.59654248  0.93003951     0.18400
N2040       N  0.59966948  0.56604385  0.96927935    -0.88300
H2041       H  0.58687382  0.53897660  0.83422050     0.35800
H2042       H  0.56340641  0.56901233  0.83731401     0.40900
H2043       H  0.59659635  0.58869973  0.97549035     0.40500
H2044       H  0.62170641  0.55971807  0.97516661     0.35400
C2045       C  0.67055974  0.60572062  0.82279123    -0.26300
C2046       C  0.65336784  0.58632710  0.84193454    -0.14400
C2047       C  0.66001107  0.55467957  0.84076476     0.36200
C2048       C  0.68294905  0.54414260  0.82159472    -0.25800
C2049       C  0.70018573  0.56387390  0.80362552    -0.15000
C2050       C  0.69352446  0.59513549  0.80381167     0.37300
N2051       N  0.71070747  0.61721776  0.78700038    -0.89300
H2052       H  0.66697818  0.63002183  0.82367498     0.18400
H2053       H  0.68819754  0.52009814  0.82170643     0.18400
N2054       N  0.64572100  0.53300664  0.86031738    -0.88300
H2055       H  0.69636529  0.62669194  0.77064001     0.35800
H2056       H  0.72893137  0.60765356  0.77556164     0.40900
H2057       H  0.66233623  0.52244109  0.87354235     0.40500
H2058       H  0.63579885  0.51631269  0.84681200     0.35400
C2059       C  0.39637495  0.67996681  0.90128855    -0.26300
C2060       C  0.37773532  0.66007657  0.88422348    -0.14400
C2061       C  0.37788528  0.66401057  0.85215956     0.36200
C2062       C  0.39929099  0.68313869  0.83866951    -0.25800
C2063       C  0.42005912  0.70002915  0.85582575    -0.15000
C2064       C  0.41775397  0.69925965  0.88762995     0.37300
N2065       N  0.43709506  0.71780810  0.90604143    -0.89300
H2066       H  0.39546956  0.67899721  0.92581028     0.18400
H2067       H  0.39947065  0.68464156  0.81414200     0.18400
N2068       N  0.35574658  0.65036361  0.83281878    -0.88300
H2069       H  0.43292580  0.71396627  0.92907663     0.35800
H2070       H  0.43141107  0.74045099  0.90174132     0.40900
H2071       H  0.34398265  0.66765760  0.82156632     0.40500
H2072       H  0.36701360  0.63775812  0.81628977     0.35400
C2073       C  0.33905233  0.57639014  0.84177929    -0.26300
C2074       C  0.30756902  0.57797819  0.84030845    -0.14400
C2075       C  0.29169859  0.59520541  0.86184776     0.36200
C2076       C  0.30814695  0.61190381  0.88327923    -0.25800
C2077       C  0.34019900  0.61403227  0.88222305    -0.15000
C2078       C  0.35545674  0.59385201  0.86234311     0.37300
N2079       N  0.38777439  0.59192623  0.86180945    -0.89300
H2080       H  0.35123742  0.56196967  0.82610552     0.18400
H2081       H  0.29525528  0.62365701  0.90036032     0.18400
N2082       N  0.25921127  0.59605934  0.86298813    -0.88300
H2083       H  0.39532082  0.59704610  0.83992825     0.35800
H2084       H  0.39388601  0.56950025  0.86667226     0.40900
H2085       H  0.24957929  0.58268022  0.84607728     0.40500
H2086       H  0.25249776  0.61839835  0.85857497     0.35400
C2087       C  0.41119480  0.61569963  0.91802157    -0.26300
C2088       C  0.37944686  0.61574647  0.92252035    -0.14400
C2089       C  0.36770138  0.59342704  0.94277096     0.36200
C2090       C  0.38736833  0.57370901  0.95871236    -0.25800
C2091       C  0.41883304  0.57518491  0.95463917    -0.15000
C2092       C  0.43063997  0.59604424  0.93347255     0.37300
N2093       N  0.46245311  0.59624528  0.92643766    -0.89300
H2094       H  0.42149048  0.62930895  0.90052100     0.18400
H2095       H  0.37794380  0.55713990  0.97427711     0.18400
N2096       N  0.33572548  0.59041876  0.94695320    -0.88300
H2097       H  0.46775113  0.61334802  0.91081021     0.35800
H2098       H  0.46757169  0.57565140  0.91595194     0.40900
H2099       H  0.33098742  0.59315538  0.96999613     0.40500
H2100       H  0.32953649  0.56838221  0.94087981     0.35400
C2101       C  0.30067736  0.69940572  0.92287301    -0.26300
C2102       C  0.30429367  0.70267732  0.95417710    -0.14400
C2103       C  0.32399244  0.68253748  0.96968468     0.36200
C2104       C  0.34005696  0.66042299  0.95325522    -0.25800
C2105       C  0.33705220  0.65749674  0.92148587    -0.15000
C2106       C  0.31687484  0.67787905  0.90653639     0.37300
N2107       N  0.31317088  0.67750381  0.87428928    -0.89300
H2108       H  0.28573583  0.71442409  0.91036576     0.18400
H2109       H  0.35628531  0.64682976  0.96553405     0.18400
N2110       N  0.32836658  0.68486887  0.00189720    -0.88300
H2111       H  0.31916131  0.69885278  0.86576775     0.35800
H2112       H  0.29029680  0.67396497  0.86941232     0.40900
H2113       H  0.34063530  0.70472838  0.00587062     0.40500
H2114       H  0.34176632  0.66703305  0.00999400     0.35400
C2115       C  0.36881564  0.32045106  0.88694585    -0.26300
C2116       C  0.37671870  0.35148570  0.88990568    -0.14400
C2117       C  0.35990790  0.36874781  0.91130549     0.36200
C2118       C  0.33764756  0.35510479  0.92916114    -0.25800
C2119       C  0.33060937  0.32417234  0.92686446    -0.15000
C2120       C  0.34657631  0.30669857  0.90548907     0.37300
N2121       N  0.34005181  0.27510275  0.90203222    -0.89300
H2122       H  0.37910726  0.30653162  0.86977907     0.18400
H2123       H  0.32584999  0.36930235  0.94527642     0.18400
N2124       N  0.36549579  0.40052615  0.91531284    -0.88300
H2125       H  0.36001749  0.26297611  0.90593864     0.35800
H2126       H  0.33349963  0.27145304  0.87956345     0.40900
H2127       H  0.37118978  0.40424358  0.93800748     0.40500
H2128       H  0.34545635  0.41229099  0.91071459     0.35400
C2129       C  0.39027463  0.42480332  0.85615917    -0.26300
C2130       C  0.38317084  0.39354729  0.85317210    -0.14400
C2131       C  0.35808460  0.38612836  0.83424804     0.36200
C2132       C  0.34322523  0.40871203  0.81751888    -0.25800
C2133       C  0.35269955  0.43888859  0.81854588    -0.15000
C2134       C  0.37599239  0.44724311  0.83841855     0.37300
N2135       N  0.38462115  0.47858341  0.84102141    -0.89300
H2136       H  0.40644107  0.43245342  0.87266012     0.18400
H2137       H  0.32446925  0.40243667  0.80299435     0.18400
N2138       N  0.34824092  0.35534224  0.83104142    -0.88300
H2139       H  0.40235446  0.48103672  0.85642294     0.35800
H2140       H  0.36616429  0.49042667  0.85000850     0.40900
H2141       H  0.34956892  0.34950667  0.80813377     0.40500
H2142       H  0.32556393  0.35411327  0.83762346     0.35400
C2143       C  0.42791639  0.37524872  0.92191171    -0.26300
C2144       C  0.42744631  0.38046662  0.89022543    -0.14400
C2145       C  0.45107792  0.39900944  0.87836716     0.36200
C2146       C  0.46811852  0.41751662  0.89801514    -0.25800
C2147       C  0.46271620  0.41707097  0.92931239    -0.15000
C2148       C  0.44392659  0.39424238  0.94138007     0.37300
N2149       N  0.44008254  0.39026104  0.97339950    -0.89300
H2150       H  0.41407306  0.35789490  0.93229881     0.18400
H2151       H  0.48390334  0.43379854  0.88855573     0.18400
N2152       N  0.45610166  0.40116710  0.84636504    -0.88300
H2153       H  0.43025830  0.40982109  0.98226869     0.35800
H2154       H  0.46141211  0.38727106  0.98325415     0.40900
H2155       H  0.47847411  0.39480697  0.84211512     0.40500
H2156       H  0.45360253  0.42382935  0.83972417     0.35400
C2157       C  0.41672688  0.35462714  0.81468843    -0.26300
C2158       C  0.41670861  0.34646949  0.84580142    -0.14400
C2159       C  0.43351791  0.32005562  0.85392432     0.36200
C2160       C  0.44655465  0.30152649  0.83124718    -0.25800
C2161       C  0.44457209  0.30959057  0.80047488    -0.15000
C2162       C  0.42971487  0.33652149  0.79248390     0.37300
N2163       N  0.42764126  0.34580581  0.76138935    -0.89300
H2164       H  0.40747936  0.37582917  0.80666192     0.18400
H2165       H  0.45918615  0.28147248  0.83781041     0.18400
N2166       N  0.43796076  0.31226289  0.88517235    -0.88300
H2167       H  0.43810241  0.36695953  0.75915160     0.35800
H2168       H  0.40471653  0.34860765  0.75630718     0.40900
H2169       H  0.46121738  0.31212491  0.88946313     0.40500
H2170       H  0.42986568  0.29024749  0.88868903     0.35400
C2171       C  0.57835519  0.58216335  0.06982941    -0.26300
C2172       C  0.54704317  0.58441711  0.07226253    -0.14400
C2173       C  0.53458555  0.60502039  0.09318688     0.36200
C2174       C  0.55400199  0.62264449  0.11136517    -0.25800
C2175       C  0.58603610  0.62050436  0.10956410    -0.15000
C2176       C  0.59782694  0.59877543  0.08830598     0.37300
N2177       N  0.62928790  0.59122580  0.08561577    -0.89300
H2178       H  0.58800124  0.56591970  0.05415714     0.18400
H2179       H  0.54332437  0.63706637  0.12785961     0.18400
N2180       N  0.50248497  0.60822353  0.09720786    -0.88300
H2181       H  0.63608025  0.57818387  0.10419566     0.35800
H2182       H  0.64277586  0.61040223  0.08310798     0.40900
H2183       H  0.49046063  0.59403527  0.08266039     0.40500
H2184       H  0.49673243  0.63046337  0.09118512     0.35400
C2185       C  0.59262710  0.65524742  0.18618528    -0.26300
C2186       C  0.58969919  0.65990384  0.15440757    -0.14400
C2187       C  0.57174003  0.68521522  0.14515265     0.36200
C2188       C  0.55657546  0.70324913  0.16686779    -0.25800
C2189       C  0.55871108  0.69674307  0.19798123    -0.15000
C2190       C  0.57740542  0.67267954  0.20747239     0.37300
N2191       N  0.58244126  0.66593108  0.23894460    -0.89300
H2192       H  0.60779049  0.63857148  0.19563813     0.18400
H2193       H  0.54256562  0.72199024  0.15928895     0.18400
N2194       N  0.56855885  0.69263402  0.11367233    -0.88300
H2195       H  0.56217823  0.65882022  0.24881574     0.35800
H2196       H  0.58997161  0.68557017  0.24978735     0.40900
H2197       H  0.57641185  0.71477347  0.11037790     0.40500
H2198       H  0.54555003  0.69223706  0.10821625     0.35400
C2199       C  0.60854331  0.38476092  0.05450888    -0.26300
C2200       C  0.62359247  0.39550309  0.08079456    -0.14400
C2201       C  0.61533027  0.42518087  0.09082183     0.36200
C2202       C  0.59532320  0.44307925  0.07370458    -0.25800
C2203       C  0.58150546  0.43233739  0.04730861    -0.15000
C2204       C  0.58836221  0.40270950  0.03761865     0.37300
N2205       N  0.57407176  0.38955542  0.01166194    -0.89300
H2206       H  0.61204005  0.36175560  0.04702281     0.18400
H2207       H  0.58968757  0.46551415  0.08194984     0.18400
N2208       N  0.62532528  0.43709718  0.11926342    -0.88300
H2209       H  0.57983837  0.40232284  0.99250372     0.35800
H2210       H  0.55063456  0.39044683  0.01466450     0.40900
H2211       H  0.60631726  0.44185853  0.13250018     0.40500
H2212       H  0.63658637  0.45756019  0.11512193     0.35400
C2213       C  0.67210015  0.35727759  0.05171700    -0.26300
C2214       C  0.66493515  0.35206359  0.08257657    -0.14400
C2215       C  0.67965628  0.32723041  0.09736297     0.36200
C2216       C  0.69758237  0.30713931  0.08088779    -0.25800
C2217       C  0.70107419  0.31047726  0.04971803    -0.15000
C2218       C  0.68904439  0.33613722  0.03494066     0.37300
N2219       N  0.69445653  0.34084329  0.00312705    -0.89300
H2220       H  0.66419241  0.37746567  0.04023807     0.18400
H2221       H  0.70724225  0.28756378  0.09233031     0.18400
N2222       N  0.67496218  0.32095584  0.12887392    -0.88300
H2223       H  0.68490881  0.36133877  0.99588935     0.35800
H2224       H  0.68320064  0.32372162  0.99132273     0.40900
H2225       H  0.66563963  0.29925824  0.13103521     0.40500
H2226       H  0.69602092  0.32091792  0.13968337     0.35400
C2227       C  0.05508936  0.62940108  0.40011245    -0.26300
C2228       C  0.08545951  0.62261254  0.39255912    -0.14400
C2229       C  0.09951318  0.59794842  0.40815783     0.36200
C2230       C  0.08237703  0.57866692  0.42651519    -0.25800
C2231       C  0.05168517  0.58394633  0.43127559    -0.15000
C2232       C  0.03818734  0.61027848  0.41913024     0.37300
N2233       N  0.00720612  0.61762961  0.42501822    -0.89300
H2234       H  0.04405601  0.64941428  0.39119408     0.18400
H2235       H  0.09317892  0.55911792  0.43692803     0.18400
N2236       N  0.13090289  0.59114239  0.40388762    -0.88300
H2237       H  0.00449625  0.62021191  0.44842319     0.35800
H2238       H  0.99378190  0.59949524  0.41796754     0.40900
H2239       H  0.14151487  0.59155847  0.42504979     0.40500
H2240       H  0.13271384  0.56912494  0.39530289     0.35400
C2241       C  0.05770101  0.65279515  0.33456195    -0.26300
C2242       C  0.08484013  0.66306411  0.34804692    -0.14400
C2243       C  0.09609979  0.69178573  0.33782084     0.36200
C2244       C  0.07925233  0.70948795  0.31744109    -0.25800
C2245       C  0.05215573  0.69909876  0.30489216    -0.15000
C2246       C  0.04138145  0.67018981  0.31337882     0.37300
N2247       N  0.01465993  0.65784300  0.29950580    -0.89300
H2248       H  0.04931324  0.63047269  0.33993299     0.18400
H2249       H  0.08830065  0.73126360  0.31040231     0.18400
N2250       N  0.12541561  0.70277910  0.34614548    -0.88300
H2251       H  0.00949673  0.63654536  0.30865125     0.35800
H2252       H  0.01948515  0.65434675  0.27657307     0.40900
H2253       H  0.13818851  0.70580577  0.32642819     0.40500
H2254       H  0.12279800  0.72395308  0.35641675     0.35400
C2255       C  0.89504149  0.41086884  0.66812347    -0.26300
C2256       C  0.87763480  0.39164381  0.64910150    -0.14400
C2257       C  0.84600133  0.39768355  0.64740361     0.36200
C2258       C  0.83289308  0.41859157  0.66736794    -0.25800
C2259       C  0.85033071  0.43545137  0.68786321    -0.15000
C2260       C  0.88185979  0.43234046  0.68727901     0.37300
N2261       N  0.90065578  0.45016276  0.70673753    -0.89300
H2262       H  0.91937206  0.40819703  0.66912636     0.18400
H2263       H  0.80865467  0.42215495  0.66625864     0.18400
N2264       N  0.82699116  0.38462449  0.62465627    -0.88300
H2265       H  0.91580255  0.46233135  0.69313915     0.35800
H2266       H  0.91318739  0.43538966  0.72047042     0.40900
H2267       H  0.81797164  0.40223487  0.61149700     0.40500
H2268       H  0.80879621  0.37395288  0.63542130     0.35400
C2269       C  0.94884334  0.38871309  0.61608983    -0.26300
C2270       C  0.91723439  0.38670567  0.61109657    -0.14400
C2271       C  0.90470310  0.40645615  0.58878982     0.36200
C2272       C  0.92321136  0.42510440  0.57128453    -0.25800
C2273       C  0.95464215  0.42640335  0.57548911    -0.15000
C2274       C  0.96746226  0.40808768  0.59868922     0.37300
N2275       N  0.99905011  0.40900828  0.60572051    -0.89300
H2276       H  0.95939961  0.37607889  0.63427982     0.18400
H2277       H  0.91224141  0.43908305  0.55424818     0.18400
N2278       N  0.87275199  0.40779195  0.58359608    -0.88300
H2279       H  0.00481524  0.43123536  0.61152397     0.35800
H2280       H  0.01124213  0.40257290  0.58652091     0.40900
H2281       H  0.86856015  0.40260076  0.56086889     0.40500
H2282       H  0.86554518  0.43006091  0.58734571     0.35400
C2283       C  0.94866277  0.30428639  0.66538723    -0.26300
C2284       C  0.94260070  0.30673990  0.69642122    -0.14400
C2285       C  0.92024666  0.32688517  0.70636757     0.36200
C2286       C  0.90524771  0.34532967  0.68533387    -0.25800
C2287       C  0.91258068  0.34531699  0.65400815    -0.15000
C2288       C  0.93359053  0.32295929  0.64412552     0.37300
N2289       N  0.94000715  0.31933272  0.61253992    -0.89300
H2290       H  0.96571363  0.28844673  0.65767766     0.18400
H2291       H  0.88714428  0.35919176  0.69401697     0.18400
N2292       N  0.91315325  0.32880489  0.73815340    -0.88300
H2293       H  0.93466042  0.29704970  0.60655826     0.35800
H2294       H  0.96322006  0.32239598  0.60926922     0.40900
H2295       H  0.90398289  0.30796354  0.74483579     0.40500
H2296       H  0.89651716  0.34518734  0.74206326     0.35400
C2297       C  0.91505209  0.40477623  0.40569475    -0.26300
C2298       C  0.89903592  0.41926070  0.38194398    -0.14400
C2299       C  0.90870707  0.44904228  0.37370491     0.36200
C2300       C  0.92875691  0.46497269  0.39270728    -0.25800
C2301       C  0.94071110  0.45142480  0.41886345    -0.15000
C2302       C  0.93491045  0.42044940  0.42459112     0.37300
N2303       N  0.94858545  0.40404278  0.44936091    -0.89300
H2304       H  0.91041470  0.38131916  0.41116519     0.18400
H2305       H  0.93464332  0.48822344  0.38720701     0.18400
N2306       N  0.89956582  0.46293852  0.34575047    -0.88300
H2307       H  0.93139504  0.39806969  0.46452210     0.35800
H2308       H  0.96412685  0.41718063  0.46129910     0.40900
H2309       H  0.91897118  0.46715718  0.33289003     0.40500
H2310       H  0.88961961  0.48387545  0.35062183     0.35400
C2311       C  0.84974534  0.58652511  0.62015173    -0.26300
C2312       C  0.84497007  0.61831854  0.61882047    -0.14400
C2313       C  0.82608250  0.63066234  0.64204889     0.36200
C2314       C  0.81180765  0.61168869  0.66356713    -0.25800
C2315       C  0.81626392  0.58028600  0.66360241    -0.15000
C2316       C  0.83491421  0.56754750  0.64094508     0.37300
N2317       N  0.83990346  0.53533647  0.63846491    -0.89300
H2318       H  0.86597830  0.57539947  0.60589807     0.18400
H2319       H  0.79831154  0.62184588  0.68133011     0.18400
N2320       N  0.82196656  0.66275382  0.64461443    -0.88300
H2321       H  0.83327936  0.52888395  0.61666414     0.35800
H2322       H  0.82596661  0.52299184  0.65305757     0.40900
H2323       H  0.82981790  0.66944870  0.66592019     0.40500
H2324       H  0.79880493  0.66743538  0.64356230     0.35400
C2325       C  0.87101407  0.59737843  0.55531689    -0.26300
C2326       C  0.88384554  0.62022293  0.57388582    -0.14400
C2327       C  0.91560825  0.62537490  0.56994817     0.36200
C2328       C  0.93329957  0.60454252  0.55411481    -0.25800
C2329       C  0.92090579  0.57921988  0.53963635    -0.15000
C2330       C  0.88898233  0.57646412  0.53923137     0.37300
N2331       N  0.87403318  0.55286076  0.52286003    -0.89300
H2332       H  0.84668831  0.59442193  0.55509853     0.18400
H2333       H  0.95742338  0.60873798  0.55312619     0.18400
N2334       N  0.93024286  0.65277223  0.57941405    -0.88300
H2335       H  0.88039514  0.53193793  0.53208419     0.35800
H2336       H  0.88092954  0.55393927  0.50021023     0.40900
H2337       H  0.93909894  0.66365001  0.56026060     0.40500
H2338       H  0.94847096  0.64695348  0.59341288     0.35400
C2339       C  0.12887076  0.42086184  0.42836210    -0.26300
C2340       C  0.12160275  0.38963399  0.42627123    -0.14400
C2341       C  0.10262231  0.37795277  0.44975070     0.36200
C2342       C  0.08672510  0.39781853  0.46910845    -0.25800
C2343       C  0.09011834  0.42932270  0.46665202    -0.15000
C2344       C  0.11307530  0.44072745  0.44743406     0.37300
N2345       N  0.12055866  0.47248898  0.44609795    -0.89300
H2346       H  0.14657610  0.43070534  0.41466020     0.18400
H2347       H  0.07010406  0.38857534  0.48464948     0.18400
N2348       N  0.09820802  0.34601530  0.45332320    -0.88300
H2349       H  0.14337721  0.47462186  0.45199880     0.35800
H2350       H  0.10865472  0.48484839  0.46228038     0.40900
H2351       H  0.07509761  0.34128124  0.45183051     0.40500
H2352       H  0.10537554  0.33991318  0.47509946     0.35400
C2353       C  0.09158757  0.57527643  0.56816082    -0.26300
C2354       C  0.07536805  0.55135332  0.58126526    -0.14400
C2355       C  0.07708733  0.54712249  0.61303616     0.36200
C2356       C  0.09629167  0.56594478  0.63020776    -0.25800
C2357       C  0.11448167  0.58892688  0.61687981    -0.15000
C2358       C  0.10977929  0.59465388  0.58528244     0.37300
N2359       N  0.12129204  0.62117630  0.57031574    -0.89300
H2360       H  0.08912103  0.57994584  0.54410654     0.18400
H2361       H  0.09711878  0.56244058  0.65450142     0.18400
N2362       N  0.05914565  0.52495958  0.62889787    -0.88300
H2363       H  0.13430124  0.61425255  0.55180634     0.35800
H2364       H  0.10301708  0.63371791  0.56189260     0.40900
H2365       H  0.04505131  0.51303081  0.61424685     0.40500
H2366       H  0.04487486  0.53665673  0.64368922     0.35400
C2367       C  0.16103766  0.55874000  0.65522318    -0.26300
C2368       C  0.15584023  0.59013771  0.65964338    -0.14400
C2369       C  0.17432362  0.60488878  0.68149444     0.36200
C2370       C  0.19576389  0.58872189  0.69823769    -0.25800
C2371       C  0.20079402  0.55777350  0.69366847    -0.15000
C2372       C  0.18276457  0.54243146  0.67211177     0.37300
N2373       N  0.18702342  0.51058134  0.66661399    -0.89300
H2374       H  0.14957217  0.54672401  0.63737070     0.18400
H2375       H  0.20928842  0.60113751  0.71448075     0.18400
N2376       N  0.17202343  0.63676237  0.68661609    -0.88300
H2377       H  0.17301648  0.50313924  0.64904713     0.35800
H2378       H  0.18004498  0.49892320  0.68608319     0.40900
H2379       H  0.16711542  0.64029175  0.70950923     0.40500
H2380       H  0.19305560  0.64660509  0.68202348     0.35400
C2381       C  0.95104206  0.67175214  0.85171788    -0.26300
C2382       C  0.91996153  0.66467310  0.84884836    -0.14400
C2383       C  0.90342021  0.67989660  0.82549789     0.36200
C2384       C  0.91810144  0.69920240  0.80509708    -0.25800
C2385       C  0.94917906  0.70389569  0.80672420    -0.15000
C2386       C  0.96586369  0.69070572  0.83076752     0.37300
N2387       N  0.99773722  0.69596071  0.83466171    -0.89300
H2388       H  0.96428678  0.66287687  0.87032703     0.18400
H2389       H  0.90523087  0.70932491  0.78670285     0.18400
N2390       N  0.87170407  0.67467988  0.82139178    -0.88300
H2391       H  0.00070398  0.70658410  0.85559899     0.35800
H2392       H  0.00608251  0.71103924  0.81838521     0.40900
H2393       H  0.86051930  0.69551485  0.82297510     0.40500
H2394       H  0.86825127  0.66623200  0.79955159     0.35400
C2395       C  0.03909850  0.81365756  0.83029183    -0.26300
C2396       C  0.05514167  0.80412007  0.80458651    -0.14400
C2397       C  0.08657187  0.80957781  0.80327984     0.36200
C2398       C  0.10023405  0.82715986  0.82585397    -0.25800
C2399       C  0.08343094  0.84079239  0.84937431    -0.15000
C2400       C  0.05314797  0.83068747  0.85325901     0.37300
N2401       N  0.03689683  0.83611328  0.88076820    -0.89300
H2402       H  0.01546169  0.80764600  0.83273157     0.18400
H2403       H  0.12400671  0.83222963  0.82366876     0.18400
N2404       N  0.10435823  0.79889155  0.77821193    -0.88300
H2405       H  0.01651608  0.84687466  0.87533904     0.35800
H2406       H  0.03162282  0.81509636  0.89050159     0.40900
H2407       H  0.10625919  0.77535106  0.78050287     0.40500
H2408       H  0.12642118  0.80733693  0.77932825     0.35400
C2409       C  0.09430960  0.65027410  0.63856020    -0.26300
C2410       C  0.11109156  0.62862718  0.65533724    -0.14400
C2411       C  0.10288310  0.62465251  0.68642586     0.36200
C2412       C  0.08351530  0.64559025  0.70052788    -0.25800
C2413       C  0.07031932  0.66934310  0.68418199    -0.15000
C2414       C  0.07482723  0.67103321  0.65249928     0.37300
N2415       N  0.06016748  0.69340299  0.63365397    -0.89300
H2416       H  0.09785407  0.65251635  0.61443454     0.18400
H2417       H  0.07846988  0.64301434  0.72444694     0.18400
N2418       N  0.11240253  0.59869351  0.70359109    -0.88300
H2419       H  0.07695369  0.70745669  0.62458397     0.35800
H2420       H  0.04563806  0.70732472  0.64597265     0.40900
H2421       H  0.09311377  0.58676280  0.71038148     0.40500
H2422       H  0.12338668  0.60624940  0.72314738     0.35400
C2423       C  0.90208012  0.64577264  0.63610642    -0.26300
C2424       C  0.88189857  0.66080204  0.61600203    -0.14400
C2425       C  0.88220239  0.69347232  0.61682037     0.36200
C2426       C  0.90493284  0.70865423  0.63303207    -0.25800
C2427       C  0.92642622  0.69298818  0.65027340    -0.15000
C2428       C  0.92405938  0.66115398  0.65272856     0.37300
N2429       N  0.94472739  0.64344493  0.67055382    -0.89300
H2430       H  0.90220938  0.62121752  0.63734626     0.18400
H2431       H  0.90528846  0.73325733  0.63277484     0.18400
N2432       N  0.85937851  0.71260764  0.60389406    -0.88300
H2433       H  0.94199387  0.64892095  0.69339419     0.35800
H2434       H  0.96680937  0.64859860  0.66382092     0.40900
H2435       H  0.83761690  0.70422051  0.60722217     0.40500
H2436       H  0.86452084  0.71827869  0.58155739     0.35400
C2437       C  0.66640183  0.19358563  0.53810751    -0.26300
C2438       C  0.69597540  0.19945589  0.54772459    -0.14400
C2439       C  0.70769237  0.18280846  0.57259086     0.36200
C2440       C  0.68961964  0.16131342  0.58728062    -0.25800
C2441       C  0.65932738  0.15583995  0.57854239    -0.15000
C2442       C  0.64784572  0.17297341  0.55358383     0.37300
N2443       N  0.61693214  0.17022274  0.54422254    -0.89300
H2444       H  0.65684369  0.20638842  0.51936280     0.18400
H2445       H  0.69919799  0.15064796  0.60716685     0.18400
N2446       N  0.73774176  0.18731117  0.58390419    -0.88300
H2447       H  0.61646174  0.16434780  0.52129786     0.35800
H2448       H  0.60669655  0.19150071  0.54624214     0.40900
H2449       H  0.73943320  0.20906397  0.59301705     0.40500
H2450       H  0.75303796  0.18500267  0.56600610     0.35400
C2451       C  0.66449375  0.31461863  0.39269400    -0.26300
C2452       C  0.66400700  0.31733744  0.42431793    -0.14400
C2453       C  0.64131015  0.33510957  0.43758403     0.36200
C2454       C  0.62025588  0.35055823  0.41967702    -0.25800
C2455       C  0.61982441  0.34817154  0.38780009    -0.15000
C2456       C  0.64296636  0.32994047  0.37438948     0.37300
N2457       N  0.64521977  0.32750024  0.34209343    -0.89300
H2458       H  0.68241675  0.30175641  0.38203351     0.18400
H2459       H  0.60537817  0.36565608  0.43157840     0.18400
N2460       N  0.64017667  0.33861131  0.46973720    -0.88300
H2461       H  0.64441827  0.30455638  0.33628839     0.35800
H2462       H  0.66634729  0.33588846  0.33554299     0.40900
H2463       H  0.61899944  0.33114814  0.47723699     0.40500
H2464       H  0.64180011  0.36181269  0.47419188     0.35400
C2465       C  0.88231865  0.34108358  0.58023020    -0.26300
C2466       C  0.87593346  0.34510064  0.61134060    -0.14400
C2467       C  0.85255567  0.32665192  0.62368087     0.36200
C2468       C  0.83264413  0.31099461  0.60429247    -0.25800
C2469       C  0.83645855  0.31154023  0.57263421    -0.15000
C2470       C  0.86295615  0.32543049  0.56091874     0.37300
N2471       N  0.87101625  0.32474502  0.52945576    -0.89300
H2472       H  0.90238851  0.35064387  0.57003226     0.18400
H2473       H  0.81363415  0.29901716  0.61416523     0.18400
N2474       N  0.84822015  0.32449883  0.65579470    -0.88300
H2475       H  0.85483941  0.33656487  0.51677334     0.35800
H2476       H  0.87240724  0.30218652  0.52239319     0.40900
H2477       H  0.85077254  0.30174024  0.66208437     0.40500
H2478       H  0.82605459  0.33084429  0.66092853     0.35400
C2479       C  0.68956318  0.34596071  0.60503520    -0.26300
C2480       C  0.68662454  0.35181021  0.57393919    -0.14400
C2481       C  0.66243601  0.37027404  0.56420638     0.36200
C2482       C  0.64444871  0.38521035  0.58541776    -0.25800
C2483       C  0.65069774  0.38392550  0.61684217    -0.15000
C2484       C  0.67150586  0.36075323  0.62641372     0.37300
N2485       N  0.67615239  0.35233083  0.65745693    -0.89300
H2486       H  0.70651654  0.33004295  0.61303354     0.18400
H2487       H  0.62550442  0.39794605  0.57663013     0.18400
N2488       N  0.65426209  0.37281095  0.53299495    -0.88300
H2489       H  0.65658956  0.34209360  0.66580983     0.35800
H2490       H  0.68197486  0.37121376  0.67026827     0.40900
H2491       H  0.65095295  0.35081614  0.52505786     0.40500
H2492       H  0.67197471  0.38303818  0.52108080     0.35400
C2493       C  0.80600708  0.35586178  0.40097590    -0.26300
C2494       C  0.80709062  0.36408939  0.43149591    -0.14400
C2495       C  0.82795613  0.38598832  0.44101115     0.36200
C2496       C  0.84876577  0.39792216  0.42001064    -0.25800
C2497       C  0.84978854  0.38801168  0.38939072    -0.15000
C2498       C  0.82646180  0.36790548  0.37987086     0.37300
N2499       N  0.82426294  0.35841711  0.34894529    -0.89300
H2500       H  0.78980298  0.33897144  0.39361760     0.18400
H2501       H  0.86371529  0.41548824  0.42797737     0.18400
N2502       N  0.82879650  0.39503872  0.47226975    -0.88300
H2503       H  0.80284036  0.36445927  0.34087049     0.35800
H2504       H  0.82597359  0.33477511  0.34827649     0.40900
H2505       H  0.80844453  0.40612858  0.47697501     0.40500
H2506       H  0.84605051  0.41082240  0.47590069     0.35400
C2507       C  0.20122770  0.90296285  0.66018398    -0.26300
C2508       C  0.18593663  0.92750207  0.67297384    -0.14400
C2509       C  0.15509753  0.93173257  0.66572366     0.36200
C2510       C  0.14136390  0.91292125  0.64423056    -0.25800
C2511       C  0.15727135  0.89042837  0.62789487    -0.15000
C2512       C  0.18753989  0.88400285  0.63851181     0.37300
N2513       N  0.20485998  0.85776752  0.63032644    -0.89300
H2514       H  0.22429876  0.89836733  0.66717090     0.18400
H2515       H  0.11785894  0.91712382  0.63928149     0.18400
N2516       N  0.13671511  0.95479239  0.67960378    -0.88300
H2517       H  0.21869708  0.86209781  0.61169106     0.35800
H2518       H  0.19205640  0.83809641  0.62842153     0.40900
H2519       H  0.14852941  0.96715647  0.69584254     0.40500
H2520       H  0.11923118  0.94384556  0.69125506     0.35400
C2521       C  0.12309469  0.83365503  0.64150540    -0.26300
C2522       C  0.11312727  0.85655742  0.62116087    -0.14400
C2523       C  0.08078307  0.86059504  0.61922814     0.36200
C2524       C  0.06129582  0.83854581  0.63156912    -0.25800
C2525       C  0.07216179  0.81412096  0.64865423    -0.15000
C2526       C  0.10353017  0.81185951  0.65390172     0.37300
N2527       N  0.11563436  0.78689654  0.67125132    -0.89300
H2528       H  0.14689555  0.83100383  0.64579386     0.18400
H2529       H  0.03706870  0.84193051  0.62977914     0.18400
N2530       N  0.06609986  0.88803395  0.60953919    -0.88300
H2531       H  0.13916239  0.78847361  0.67304295     0.35800
H2532       H  0.11113069  0.76699262  0.65926130     0.40900
H2533       H  0.05510973  0.88440631  0.58890646     0.40500
H2534       H  0.08015806  0.90682080  0.60871895     0.35400
C2535       C  0.10578743  0.88043572  0.55561652    -0.26300
C2536       C  0.12453870  0.89489715  0.57741146    -0.14400
C2537       C  0.12676187  0.92743428  0.57485488     0.36200
C2538       C  0.10571902  0.94324406  0.55703564    -0.25800
C2539       C  0.08457743  0.92838715  0.53887538    -0.15000
C2540       C  0.08594039  0.89654629  0.53657693     0.37300
N2541       N  0.06583396  0.87948527  0.51752393    -0.89300
H2542       H  0.10432040  0.85593577  0.55522365     0.18400
H2543       H  0.10599117  0.96785542  0.55728482     0.18400
N2544       N  0.15028314  0.94582838  0.58766233    -0.88300
H2545       H  0.07909957  0.86798368  0.50169963     0.35800
H2546       H  0.05132318  0.89351768  0.50516577     0.40900
H2547       H  0.16884589  0.93376527  0.59544471     0.40500
H2548       H  0.14123582  0.95919620  0.60490695     0.35400
C2549       C  0.15007572  0.12052417  0.65782402    -0.26300
C2550       C  0.11820441  0.11939138  0.65651272    -0.14400
C2551       C  0.10357539  0.10092866  0.67882935     0.36200
C2552       C  0.12025261  0.08036947  0.69641014    -0.25800
C2553       C  0.15161668  0.07808616  0.69346595    -0.15000
C2554       C  0.16677987  0.09978457  0.67509000     0.37300
N2555       N  0.19909635  0.10184890  0.67356010    -0.89300
H2556       H  0.16271362  0.13715021  0.64505221     0.18400
H2557       H  0.10820738  0.06526777  0.71164393     0.18400
N2558       N  0.07145179  0.10144616  0.68250720    -0.88300
H2559       H  0.20771639  0.08238956  0.66328243     0.35800
H2560       H  0.20774577  0.10386596  0.69552663     0.40900
H2561       H  0.06670280  0.10728951  0.70494648     0.40500
H2562       H  0.06308503  0.07958877  0.67878395     0.35400
C2563       C  0.08278378  0.08446159  0.61510019    -0.26300
C2564       C  0.08077535  0.11643934  0.61169423    -0.14400
C2565       C  0.06385837  0.12712658  0.58631811     0.36200
C2566       C  0.04693223  0.10673360  0.56853773    -0.25800
C2567       C  0.04684133  0.07535485  0.57461008    -0.15000
C2568       C  0.06572040  0.06432619  0.59798590     0.37300
N2569       N  0.06952353  0.03258103  0.60421606    -0.89300
H2570       H  0.09851411  0.07386049  0.63045264     0.18400
H2571       H  0.03393624  0.11562897  0.54964311     0.18400
N2572       N  0.06425351  0.15859477  0.57793737    -0.88300
H2573       H  0.07668225  0.02164644  0.58450112     0.35800
H2574       H  0.04896627  0.02351572  0.61158607     0.40900
H2575       H  0.04202450  0.16650416  0.57640110     0.40500
H2576       H  0.07372588  0.16031382  0.55628818     0.35400
C2577       C  0.03636649  0.17999523  0.67988032    -0.26300
C2578       C  0.05449377  0.19874231  0.69798463    -0.14400
C2579       C  0.08593085  0.19846034  0.69348465     0.36200
C2580       C  0.09837667  0.17924065  0.67187387    -0.25800
C2581       C  0.08066760  0.16011556  0.65310282    -0.15000
C2582       C  0.04856692  0.16076733  0.65786011     0.37300
N2583       N  0.02716459  0.14166800  0.64282430    -0.89300
H2584       H  0.01209430  0.17963481  0.68324483     0.18400
H2585       H  0.12280230  0.17913164  0.66980985     0.18400
N2586       N  0.10570377  0.21714401  0.71112450    -0.88300
H2587       H  0.03299859  0.11882629  0.64443508     0.35800
H2588       H  0.02395443  0.14881982  0.62060046     0.40900
H2589       H  0.11796386  0.23101652  0.69627645     0.40500
H2590       H  0.12100805  0.20303846  0.72253934     0.35400
C2591       C  0.06926236  0.07874168  0.41873867    -0.26300
C2592       C  0.07129044  0.04703744  0.41949039    -0.14400
C2593       C  0.09375978  0.03309400  0.40142119     0.36200
C2594       C  0.11353980  0.05104598  0.38385052    -0.25800
C2595       C  0.11260778  0.08326957  0.38424216    -0.15000
C2596       C  0.08963740  0.09676880  0.40283205     0.37300
N2597       N  0.08668663  0.12879301  0.40778530    -0.89300
H2598       H  0.05237387  0.09033396  0.43219675     0.18400
H2599       H  0.13089739  0.03918155  0.37150922     0.18400
N2600       N  0.09777469  0.00087232  0.40088470    -0.88300
H2601       H  0.10403158  0.13639607  0.42183719     0.35800
H2602       H  0.08568701  0.14100894  0.38756227     0.40900
H2603       H  0.07761468  0.99086731  0.39364741     0.40500
H2604       H  0.10286229  0.99334502  0.42281219     0.35400
C2605       C  0.21046141  0.07313220  0.32834502    -0.26300
C2606       C  0.19882638  0.05458537  0.30593016    -0.14400
C2607       C  0.16731415  0.05065866  0.30343972     0.36200
C2608       C  0.14822905  0.06618513  0.32357779    -0.25800
C2609       C  0.15949268  0.08522819  0.34687211    -0.15000
C2610       C  0.19188918  0.08858439  0.34847586     0.37300
N2611       N  0.20697190  0.10864250  0.36899022    -0.89300
H2612       H  0.23476641  0.07628033  0.32995377     0.18400
H2613       H  0.12405104  0.06341735  0.32085046     0.18400
N2614       N  0.15386741  0.03164096  0.28073460    -0.88300
H2615       H  0.21980679  0.12423111  0.35650704     0.35800
H2616       H  0.22194746  0.09584641  0.38225662     0.40900
H2617       H  0.17025432  0.02149405  0.26710868     0.40500
H2618       H  0.14089995  0.04553537  0.26650339     0.35400
C2619       C  0.90011088  0.88507610  0.67829065    -0.26300
C2620       C  0.87876619  0.87411550  0.65680164    -0.14400
C2621       C  0.87520315  0.84189924  0.65550247     0.36200
C2622       C  0.89572445  0.82278608  0.67079477    -0.25800
C2623       C  0.91884931  0.83426371  0.68914106    -0.15000
C2624       C  0.92039338  0.86567156  0.69370502     0.37300
N2625       N  0.94362749  0.87814097  0.71249732    -0.89300
H2626       H  0.90257424  0.90931721  0.68140501     0.18400
H2627       H  0.89369531  0.79843760  0.66802368     0.18400
N2628       N  0.85035682  0.82788878  0.64017556    -0.88300
H2629       H  0.93323475  0.89086243  0.72949713     0.35800
H2630       H  0.95658528  0.89294463  0.69922559     0.40900
H2631       H  0.83811478  0.81515816  0.65601843     0.40500
H2632       H  0.85908574  0.81273490  0.62423777     0.35400
C2633       C  0.91488567  0.91014655  0.61554216    -0.26300
C2634       C  0.88399600  0.91860110  0.61842056    -0.14400
C2635       C  0.87415880  0.94334378  0.59980977     0.36200
C2636       C  0.89457645  0.95882507  0.58075322    -0.25800
C2637       C  0.92510090  0.95063217  0.57927060    -0.15000
C2638       C  0.93523377  0.92609837  0.59698248     0.37300
N2639       N  0.96600157  0.91608184  0.59496086    -0.89300
H2640       H  0.92376811  0.89002495  0.62632743     0.18400
H2641       H  0.88632066  0.97734126  0.56674982     0.18400
N2642       N  0.84317296  0.95262114  0.59943023    -0.88300
H2643       H  0.96603155  0.89353303  0.58771994     0.35800
H2644       H  0.97541947  0.91670524  0.61670317     0.40900
H2645       H  0.83508027  0.95057346  0.57725183     0.40500
H2646       H  0.84214931  0.97554299  0.60533853     0.35400
C2647       C  0.84686350  0.94783425  0.66660518    -0.26300
C2648       C  0.84266456  0.91648871  0.66144706    -0.14400
C2649       C  0.82038427  0.90146322  0.67936718     0.36200
C2650       C  0.80068591  0.91812617  0.69769301    -0.25800
C2651       C  0.80217770  0.94981718  0.69897857    -0.15000
C2652       C  0.82630937  0.96463523  0.68422544     0.37300
N2653       N  0.83012432  0.99674752  0.68703668    -0.89300
H2654       H  0.86547584  0.95991180  0.65630878     0.18400
H2655       H  0.78284381  0.90608194  0.70951976     0.18400
N2656       N  0.81593782  0.86939339  0.67724000    -0.88300
H2657       H  0.82955039  0.00626536  0.66527710     0.35800
H2658       H  0.85153604  0.00077667  0.69623206     0.40900
H2659       H  0.81843000  0.86000082  0.69890849     0.40500
H2660       H  0.79378936  0.86533703  0.66998695     0.35400
C2661       C  0.91457861  0.11947643  0.42625083    -0.26300
C2662       C  0.88284777  0.11574646  0.42526663    -0.14400
C2663       C  0.87012420  0.09555473  0.44706359     0.36200
C2664       C  0.88905515  0.07547093  0.46352465    -0.25800
C2665       C  0.92065305  0.07642679  0.46002875    -0.15000
C2666       C  0.93329947  0.09952631  0.44191196     0.37300
N2667       N  0.96539501  0.10212314  0.43793317    -0.89300
H2668       H  0.92586487  0.13761971  0.41432859     0.18400
H2669       H  0.87899178  0.05875836  0.47851382     0.18400
N2670       N  0.83803419  0.09412735  0.45120767    -0.88300
H2671       H  0.97202679  0.12381800  0.44471629     0.35800
H2672       H  0.97022884  0.09990660  0.41483962     0.40900
H2673       H  0.83342517  0.09901604  0.47390233     0.40500
H2674       H  0.83085999  0.07194055  0.44709850     0.35400
C2675       C  0.81019570  0.15402750  0.41907215    -0.26300
C2676       C  0.84217325  0.15505266  0.42114594    -0.14400
C2677       C  0.85455313  0.17666105  0.44148881     0.36200
C2678       C  0.83614391  0.19918981  0.45402890    -0.25800
C2679       C  0.80497687  0.20082547  0.44779778    -0.15000
C2680       C  0.79180438  0.17690721  0.43109329     0.37300
N2681       N  0.75993969  0.17507252  0.42558065    -0.89300
H2682       H  0.79881031  0.13576749  0.40754234     0.18400
H2683       H  0.84685900  0.21611059  0.46815638     0.18400
N2684       N  0.88624292  0.17699202  0.44829165    -0.88300
H2685       H  0.75319059  0.19407800  0.41303089     0.35800
H2686       H  0.74864179  0.17466452  0.44638596     0.40900
H2687       H  0.88880700  0.17437815  0.47172322     0.40500
H2688       H  0.89500238  0.19819559  0.44220508     0.35400
C2689       C  0.94393631  0.90058741  0.37593860    -0.26300
C2690       C  0.92298538  0.88008648  0.38919219    -0.14400
C2691       C  0.92673736  0.87388647  0.42077374     0.36200
C2692       C  0.94407626  0.89354804  0.43859617    -0.25800
C2693       C  0.96008820  0.91756890  0.42556532    -0.15000
C2694       C  0.96162288  0.91991572  0.39377975     0.37300
N2695       N  0.97916259  0.94303182  0.37914569    -0.89300
H2696       H  0.94395936  0.90413910  0.35162513     0.18400
H2697       H  0.94468400  0.89024911  0.46296632     0.18400
N2698       N  0.91421427  0.84743379  0.43499177    -0.88300
H2699       H  0.00174942  0.94026811  0.38559609     0.35800
H2700       H  0.97171621  0.96417360  0.38676975     0.40900
H2701       H  0.90107361  0.85435778  0.45340459     0.40500
H2702       H  0.93207929  0.83449197  0.44368132     0.35400
C2703       C  0.94669074  0.80440097  0.33038238    -0.26300
C2704       C  0.94758966  0.81452595  0.30029439    -0.14400
C2705       C  0.93358262  0.84221036  0.29252408     0.36200
C2706       C  0.91797889  0.85832799  0.31445003    -0.25800
C2707       C  0.91481427  0.84758826  0.34460083    -0.15000
C2708       C  0.93157328  0.82121906  0.35272891     0.37300
N2709       N  0.93355636  0.81149664  0.38366853    -0.89300
H2710       H  0.95846197  0.78375783  0.33675668     0.18400
H2711       H  0.90918994  0.88006725  0.30732094     0.18400
N2712       N  0.93427305  0.85450713  0.26234443    -0.88300
H2713       H  0.95633860  0.81195355  0.39000493     0.35800
H2714       H  0.92629046  0.78899152  0.38516839     0.40900
H2715       H  0.92602533  0.83826174  0.24726883     0.40500
H2716       H  0.95653853  0.86000498  0.25665565     0.35400
C2717       C  0.66507322  0.69184887  0.45251441    -0.26300
C2718       C  0.69413041  0.69944275  0.44230628    -0.14400
C2719       C  0.70593226  0.68424439  0.41685751     0.36200
C2720       C  0.68815173  0.66239616  0.40206414    -0.25800
C2721       C  0.65852237  0.65495612  0.41184595    -0.15000
C2722       C  0.64714704  0.67071365  0.43747304     0.37300
N2723       N  0.61694623  0.66589692  0.44820967    -0.89300
H2724       H  0.65539315  0.70317818  0.47197322     0.18400
H2725       H  0.69712273  0.65308183  0.38138702     0.18400
N2726       N  0.73537621  0.69174080  0.40521011    -0.88300
H2727       H  0.60542790  0.68660167  0.44724185     0.35800
H2728       H  0.61797249  0.65912833  0.47094405     0.40900
H2729       H  0.73402963  0.71350540  0.39579288     0.40500
H2730       H  0.74134500  0.67727324  0.38746894     0.35400
C2731       C  0.83111705  0.69424958  0.53335552    -0.26300
C2732       C  0.80105802  0.69771383  0.54243947    -0.14400
C2733       C  0.78918558  0.67715726  0.56393415     0.36200
C2734       C  0.80837187  0.65593446  0.57788751    -0.25800
C2735       C  0.84017239  0.65673146  0.57365379    -0.15000
C2736       C  0.85069982  0.67432497  0.54855431     0.37300
N2737       N  0.88161596  0.67355770  0.53912502    -0.89300
H2738       H  0.84026598  0.70871287  0.51565444     0.18400
H2739       H  0.79786564  0.63987942  0.59305516     0.18400
N2740       N  0.75776822  0.67695270  0.57184684    -0.88300
H2741       H  0.89053220  0.69547750  0.54024333     0.35800
H2742       H  0.88223575  0.66666058  0.51648305     0.40900
H2743       H  0.74503431  0.67483024  0.55199161     0.40500
H2744       H  0.75233998  0.69747982  0.58223589     0.35400
C2745       C  0.63838981  0.86017995  0.59003765    -0.26300
C2746       C  0.62053749  0.84317758  0.61054214    -0.14400
C2747       C  0.62056557  0.81092130  0.60661588     0.36200
C2748       C  0.64241296  0.79720888  0.58806437    -0.25800
C2749       C  0.66298467  0.81461405  0.57154324    -0.15000
C2750       C  0.66008899  0.84654880  0.57144755     0.37300
N2751       N  0.67939797  0.86604935  0.55374293    -0.89300
H2752       H  0.63735454  0.88473437  0.59037899     0.18400
H2753       H  0.64288856  0.77270475  0.58610856     0.18400
N2754       N  0.59792350  0.79179613  0.61985899    -0.88300
H2755       H  0.66582089  0.87728916  0.53784221     0.35800
H2756       H  0.69556209  0.85394943  0.54155245     0.40900
H2757       H  0.58642615  0.78078702  0.60234899     0.40500
H2758       H  0.60873895  0.77513406  0.63288748     0.35400
C2759       C  0.83935811  0.80688843  0.40119364    -0.26300
C2760       C  0.82696568  0.82362118  0.42509141    -0.14400
C2761       C  0.83697801  0.85374455  0.42937593     0.36200
C2762       C  0.85840283  0.86630920  0.40989537    -0.25800
C2763       C  0.87280427  0.84932452  0.38706201    -0.15000
C2764       C  0.86159565  0.81934257  0.38185265     0.37300
N2765       N  0.87054913  0.80194491  0.35605211    -0.89300
H2766       H  0.83108160  0.78419480  0.39681150     0.18400
H2767       H  0.86514332  0.88960702  0.41379070     0.18400
N2768       N  0.82613868  0.87179712  0.45404667    -0.88300
H2769       H  0.85128540  0.79750302  0.34305336     0.35800
H2770       H  0.87867329  0.78100477  0.36373896     0.40900
H2771       H  0.81641095  0.89152922  0.44509299     0.40500
H2772       H  0.84465478  0.87808103  0.46738069     0.35400
C2773       C  0.79133863  0.87811821  0.58519350    -0.26300
C2774       C  0.80420477  0.85643222  0.56642642    -0.14400
C2775       C  0.83551259  0.85082449  0.56834878     0.36200
C2776       C  0.85290924  0.86585000  0.59019128    -0.25800
C2777       C  0.83967198  0.88498088  0.61221648    -0.15000
C2778       C  0.80843648  0.89291664  0.60745969     0.37300
N2779       N  0.79377282  0.91694643  0.62351380    -0.89300
H2780       H  0.76748846  0.88340485  0.58287834     0.18400
H2781       H  0.87691584  0.86101694  0.59121645     0.18400
N2782       N  0.85022523  0.82995191  0.54840171    -0.88300
H2783       H  0.78618636  0.93304989  0.60775473     0.35800
H2784       H  0.77468749  0.90802197  0.63432645     0.40900
H2785       H  0.84606644  0.83685662  0.52606756     0.40500
H2786       H  0.84079712  0.80843832  0.55160030     0.35400
C2787       C  0.65029893  0.84416753  0.42038076    -0.26300
C2788       C  0.68128205  0.85007565  0.42348422    -0.14400
C2789       C  0.69574295  0.86821814  0.40144919     0.36200
C2790       C  0.67859657  0.88205038  0.37858091    -0.25800
C2791       C  0.64659258  0.88096611  0.37876451    -0.15000
C2792       C  0.63281106  0.85942393  0.39861406     0.37300
N2793       N  0.60069432  0.85517863  0.39888287    -0.89300
H2794       H  0.63909145  0.82904428  0.43623997     0.18400
H2795       H  0.69082586  0.89469350  0.36157340     0.18400
N2796       N  0.72782852  0.87273231  0.40138455    -0.88300
H2797       H  0.59257168  0.86067567  0.42042714     0.35800
H2798       H  0.59625101  0.83222231  0.39507433     0.40900
H2799       H  0.73844570  0.85153673  0.40104870     0.40500
H2800       H  0.73397383  0.88404489  0.42120504     0.35400
C2801       C  0.64520916  0.92560614  0.30779683    -0.26300
C2802       C  0.64658842  0.92553841  0.33994524    -0.14400
C2803       C  0.66726135  0.94630346  0.35332661     0.36200
C2804       C  0.68862255  0.96143832  0.33555243    -0.25800
C2805       C  0.69030559  0.95723877  0.30413360    -0.15000
C2806       C  0.66721234  0.94046522  0.28999343     0.37300
N2807       N  0.66594402  0.93825158  0.25764906    -0.89300
H2808       H  0.62773001  0.91340960  0.29589401     0.18400
H2809       H  0.70500059  0.97558956  0.34705302     0.18400
N2810       N  0.66807694  0.95102667  0.38535296    -0.88300
H2811       H  0.64504155  0.94675320  0.25045282     0.35800
H2812       H  0.66691905  0.91528831  0.25191386     0.40900
H2813       H  0.66433618  0.97406673  0.38944374     0.40500
H2814       H  0.68968336  0.94552455  0.39333467     0.35400
C2815       C  0.67055849  0.05520031  0.19842084    -0.26300
C2816       C  0.70106562  0.05663208  0.19046335    -0.14400
C2817       C  0.70997644  0.07368536  0.16493469     0.36200
C2818       C  0.68826896  0.09014110  0.14885617    -0.25800
C2819       C  0.65765924  0.09175571  0.15826669    -0.15000
C2820       C  0.64880620  0.07211823  0.18247310     0.37300
N2821       N  0.61771029  0.06928166  0.19106648    -0.89300
H2822       H  0.66361123  0.04132735  0.21754776     0.18400
H2823       H  0.69611572  0.10128231  0.12853583     0.18400
N2824       N  0.74070180  0.07445912  0.15415946    -0.88300
H2825       H  0.61569142  0.07428867  0.21410299     0.35800
H2826       H  0.61135198  0.04663288  0.18819286     0.40900
H2827       H  0.75499868  0.06046755  0.16684444     0.40500
H2828       H  0.74864420  0.09665072  0.15661334     0.35400
C2829       C  0.82589156  0.12796389  0.35796838    -0.26300
C2830       C  0.84433873  0.11321404  0.37992956    -0.14400
C2831       C  0.84599933  0.08086454  0.37819360     0.36200
C2832       C  0.82721308  0.06510781  0.35820326    -0.25800
C2833       C  0.80824511  0.08002976  0.33749421    -0.15000
C2834       C  0.80787656  0.11189560  0.33725741     0.37300
N2835       N  0.78927262  0.12816111  0.31613579    -0.89300
H2836       H  0.82517771  0.15253139  0.35718244     0.18400
H2837       H  0.82928853  0.04060920  0.35757738     0.18400
N2838       N  0.86848445  0.06345209  0.39390027    -0.88300
H2839       H  0.80325343  0.14223198  0.30313338     0.35800
H2840       H  0.77453248  0.14195717  0.32844908     0.40900
H2841       H  0.88200499  0.05249596  0.37788604     0.40500
H2842       H  0.85756584  0.04659968  0.40656859     0.35400
C2843       C  0.81227380  0.90006703  0.17309632    -0.26300
C2844       C  0.81432704  0.93175250  0.17127233    -0.14400
C2845       C  0.83113970  0.94490928  0.14738449     0.36200
C2846       C  0.84600780  0.92626034  0.12669143    -0.25800
C2847       C  0.84304674  0.89428816  0.12682394    -0.15000
C2848       C  0.82658306  0.88132995  0.15152859     0.37300
N2849       N  0.82501916  0.84905627  0.15534983    -0.89300
H2850       H  0.80044955  0.88971619  0.19200731     0.18400
H2851       H  0.86080299  0.93777608  0.11112490     0.18400
N2852       N  0.83430214  0.97725809  0.14354895    -0.88300
H2853       H  0.83505328  0.84354114  0.17613138     0.35800
H2854       H  0.80230128  0.84267108  0.15657356     0.40900
H2855       H  0.82097521  0.98939652  0.15874495     0.40500
H2856       H  0.82591685  0.98284555  0.12205599     0.35400
C2857       C  0.88258124  0.92382719  0.35965708    -0.26300
C2858       C  0.87873424  0.89268430  0.35256208    -0.14400
C2859       C  0.85638504  0.88557536  0.33043693     0.36200
C2860       C  0.84209819  0.90861260  0.31395652    -0.25800
C2861       C  0.84896833  0.93904049  0.31887294    -0.15000
C2862       C  0.86877117  0.94694965  0.34261081     0.37300
N2863       N  0.87522160  0.97797266  0.35032410    -0.89300
H2864       H  0.89610813  0.93086549  0.37872727     0.18400
H2865       H  0.82565986  0.90256125  0.29675070     0.18400
N2866       N  0.84886099  0.85480750  0.32363546    -0.88300
H2867       H  0.86710833  0.98170232  0.37224623     0.35800
H2868       H  0.86390919  0.99323755  0.33614582     0.40900
H2869       H  0.82571115  0.85185057  0.32745571     0.40500
H2870       H  0.85302568  0.85106223  0.30062472     0.35400
C2871       C  0.86357465  0.12912287  0.17431401    -0.26300
C2872       C  0.88178413  0.11705860  0.15079151    -0.14400
C2873       C  0.88816385  0.08487061  0.15282825     0.36200
C2874       C  0.87454677  0.06713412  0.17547995    -0.25800
C2875       C  0.85454391  0.07941564  0.19649970    -0.15000
C2876       C  0.84976475  0.11097080  0.19653493     0.37300
N2877       N  0.83077256  0.12458749  0.21916887    -0.89300
H2878       H  0.85943626  0.15333254  0.17490222     0.18400
H2879       H  0.87876207  0.04289195  0.17576004     0.18400
N2880       N  0.90826273  0.06837346  0.13349311    -0.88300
H2881       H  0.82930765  0.14805660  0.21591489     0.35800
H2882       H  0.84114474  0.12117625  0.24022485     0.40900
H2883       H  0.92953899  0.07820438  0.13147290     0.40500
H2884       H  0.89802210  0.06299113  0.11297391     0.35400
C2885       C  0.03689864  0.33300094  0.19197208    -0.26300
C2886       C  0.04481019  0.30241953  0.19366593    -0.14400
C2887       C  0.06472841  0.29051369  0.17191324     0.36200
C2888       C  0.07868038  0.31013926  0.15122108    -0.25800
C2889       C  0.07599611  0.34212688  0.15368460    -0.15000
C2890       C  0.05167363  0.35288166  0.17235263     0.37300
N2891       N  0.04226894  0.38390794  0.17388225    -0.89300
H2892       H  0.02027208  0.34215498  0.20750570     0.18400
H2893       H  0.09281218  0.29974842  0.13431241     0.18400
N2894       N  0.07102896  0.25868997  0.17002672    -0.88300
H2895       H  0.06047397  0.39770888  0.17949524     0.35800
H2896       H  0.03233596  0.39045558  0.15341898     0.40900
H2897       H  0.05053507  0.24707079  0.16791512     0.40500
H2898       H  0.08173731  0.25165077  0.18996779     0.35400
C2899       C  0.95276191  0.16666153  0.19046052    -0.26300
C2900       C  0.94414641  0.19656041  0.19660848    -0.14400
C2901       C  0.92107725  0.20982555  0.17875202     0.36200
C2902       C  0.90699625  0.19259865  0.15581492    -0.25800
C2903       C  0.91508653  0.16200655  0.14988247    -0.15000
C2904       C  0.93841790  0.14934664  0.16832372     0.37300
N2905       N  0.94723408  0.11825886  0.16560853    -0.89300
H2906       H  0.97039372  0.15580905  0.20371026     0.18400
H2907       H  0.88831998  0.20308306  0.14403940     0.18400
N2908       N  0.91125833  0.24038900  0.18434595    -0.88300
H2909       H  0.94356806  0.10748008  0.18645929     0.35800
H2910       H  0.97041990  0.11743303  0.16101413     0.40900
H2911       H  0.90021760  0.24045876  0.20529553     0.40500
H2912       H  0.89521598  0.24724352  0.16828490     0.35400
C2913       C  0.11040352  0.16677017  0.30691988    -0.26300
C2914       C  0.07935630  0.16089072  0.30441676    -0.14400
C2915       C  0.06847742  0.13340843  0.31666058     0.36200
C2916       C  0.08752918  0.11494413  0.33421637    -0.25800
C2917       C  0.11768724  0.12323867  0.34170943    -0.15000
C2918       C  0.12985428  0.14795139  0.32401889     0.37300
N2919       N  0.16124780  0.15613674  0.32358469    -0.89300
H2920       H  0.11976631  0.18680507  0.29611704     0.18400
H2921       H  0.07766697  0.09409989  0.34254596     0.18400
N2922       N  0.03773245  0.12420113  0.31215164    -0.88300
H2923       H  0.16930768  0.15244878  0.30161767     0.35800
H2924       H  0.17392463  0.14261558  0.33780538     0.40900
H2925       H  0.02752625  0.12180030  0.33340779     0.40500
H2926       H  0.03781449  0.10297039  0.30168757     0.35400
C2927       C  0.91118322  0.32312083  0.34360818    -0.26300
C2928       C  0.92767617  0.33103216  0.31763739    -0.14400
C2929       C  0.92713728  0.36167864  0.30786657     0.36200
C2930       C  0.90966359  0.38292675  0.32402798    -0.25800
C2931       C  0.89141827  0.37482766  0.34926911    -0.15000
C2932       C  0.89403287  0.34428038  0.35985615     0.37300
N2933       N  0.88148684  0.33454572  0.38820999    -0.89300
H2934       H  0.91263455  0.30014255  0.35237271     0.18400
H2935       H  0.91019137  0.40636276  0.31654678     0.18400
N2936       N  0.94460066  0.37252507  0.28254063    -0.88300
H2937       H  0.89913925  0.32702730  0.40214328     0.35800
H2938       H  0.86727736  0.31604390  0.38416606     0.40900
H2939       H  0.95734880  0.35534304  0.27268425     0.40500
H2940       H  0.96008730  0.38841087  0.29076744     0.35400
C2941       C  0.88407751  0.18509019  0.37948769    -0.26300
C2942       C  0.88418821  0.15293191  0.38013391    -0.14400
C2943       C  0.90576736  0.13822961  0.36122302     0.36200
C2944       C  0.92898996  0.15489618  0.34754009    -0.25800
C2945       C  0.93127641  0.18629777  0.35130645    -0.15000
C2946       C  0.90789347  0.20175842  0.36631999     0.37300
N2947       N  0.90805242  0.23434386  0.36760482    -0.89300
H2948       H  0.86584915  0.19773721  0.38957436     0.18400
H2949       H  0.94587164  0.14293003  0.33438463     0.18400
N2950       N  0.90553209  0.10601463  0.35740994    -0.88300
H2951       H  0.88942487  0.24231323  0.37978548     0.35800
H2952       H  0.90564192  0.24251510  0.34543769     0.40900
H2953       H  0.90346899  0.10143470  0.33426670     0.40500
H2954       H  0.92626781  0.09731384  0.36485438     0.35400
C2955       C  0.12397485  0.33280721  0.35765719    -0.26300
C2956       C  0.11196082  0.35214357  0.38023456    -0.14400
C2957       C  0.07982822  0.35383358  0.38218873     0.36200
C2958       C  0.06183194  0.33254496  0.36666022    -0.25800
C2959       C  0.07457862  0.31107622  0.34706172    -0.15000
C2960       C  0.10603927  0.31247136  0.34146306     0.37300
N2961       N  0.12094267  0.29249511  0.32073836    -0.89300
H2962       H  0.14819121  0.33178806  0.35414732     0.18400
H2963       H  0.03748148  0.33344494  0.36929585     0.18400
N2964       N  0.06492358  0.37784817  0.39796988    -0.88300
H2965       H  0.11329786  0.29707000  0.29876627     0.35800
H2966       H  0.11581945  0.27007504  0.32661412     0.40900
H2967       H  0.04971104  0.36825740  0.41338976     0.40500
H2968       H  0.05218601  0.39022911  0.38220768     0.35400
C2969       C  0.85865054  0.57242949  0.18535834    -0.26300
C2970       C  0.84749742  0.59294168  0.16308612    -0.14400
C2971       C  0.81567238  0.59932590  0.16391294     0.36200
C2972       C  0.79656255  0.58204676  0.18230736    -0.25800
C2973       C  0.80771912  0.56007046  0.20207244    -0.15000
C2974       C  0.83912221  0.55598668  0.20478511     0.37300
N2975       N  0.85100418  0.53511730  0.22690807    -0.89300
H2976       H  0.88280042  0.56864412  0.18699623     0.18400
H2977       H  0.77239423  0.58617392  0.18133261     0.18400
N2978       N  0.80214312  0.62412275  0.14767755    -0.88300
H2979       H  0.87464100  0.53501731  0.22624662     0.35800
H2980       H  0.84392917  0.51333099  0.22093500     0.40900
H2981       H  0.79172010  0.63850006  0.16329847     0.40500
H2982       H  0.78515508  0.61544603  0.13366921     0.35400
C2983       C  0.81421896  0.45949171  0.33809601    -0.26300
C2984       C  0.80734380  0.44913907  0.30896772    -0.14400
C2985       C  0.82425638  0.42481009  0.29697693     0.36200
C2986       C  0.84670254  0.41094012  0.31450943    -0.25800
C2987       C  0.85314028  0.42017037  0.34452596    -0.15000
C2988       C  0.83626779  0.44519909  0.35601005     0.37300
N2989       N  0.84075351  0.45577822  0.38634335    -0.89300
H2990       H  0.80145415  0.47811297  0.34769350     0.18400
H2991       H  0.85709518  0.39112887  0.30479382     0.18400
N2992       N  0.81917779  0.41333021  0.26706176    -0.88300
H2993       H  0.82022189  0.45387543  0.39794623     0.35800
H2994       H  0.84643183  0.47877988  0.38540841     0.40900
H2995       H  0.82062218  0.43129135  0.25155801     0.40500
H2996       H  0.79765961  0.40363212  0.26602519     0.35400
C2997       C  0.66490269  0.38028518  0.15453839    -0.26300
C2998       C  0.66385749  0.38867805  0.12358641    -0.14400
C2999       C  0.68490074  0.41108600  0.11378693     0.36200
C3000       C  0.70244542  0.42706919  0.13504613    -0.25800
C3001       C  0.70101740  0.42031812  0.16617060    -0.15000
C3002       C  0.68302414  0.39552664  0.17567938     0.37300
N3003       N  0.68228467  0.38627125  0.20698844    -0.89300
H3004       H  0.65169456  0.36145433  0.16283429     0.18400
H3005       H  0.71670974  0.44545475  0.12713353     0.18400
N3006       N  0.68747006  0.41879446  0.08230797    -0.88300
H3007       H  0.66930562  0.36665161  0.20988531     0.35800
H3008       H  0.67119481  0.40329874  0.21900144     0.40900
H3009       H  0.70989852  0.41527700  0.07572406     0.40500
H3010       H  0.68263030  0.44188158  0.07970802     0.35400
C3011       C  0.68016427  0.59873105  0.37642606    -0.26300
C3012       C  0.65440111  0.61591102  0.36765962    -0.14400
C3013       C  0.64370738  0.61175730  0.33742315     0.36200
C3014       C  0.65980008  0.59330265  0.31724143    -0.25800
C3015       C  0.68583727  0.57736896  0.32606438    -0.15000
C3016       C  0.69631305  0.58056682  0.35602829     0.37300
N3017       N  0.72248368  0.56469312  0.36683058    -0.89300
H3018       H  0.68807019  0.59960128  0.39963395     0.18400
H3019       H  0.65093389  0.59041493  0.29450657     0.18400
N3020       N  0.61544655  0.62399299  0.32721247    -0.88300
H3021       H  0.74113487  0.57166930  0.35403039     0.35800
H3022       H  0.71919690  0.54145181  0.36361597     0.40900
H3023       H  0.60146446  0.60601042  0.32078868     0.40500
H3024       H  0.61947721  0.63727365  0.30792089     0.35400
C3025       C  0.62612291  0.56853011  0.18093081    -0.26300
C3026       C  0.65769229  0.56807284  0.18126534    -0.14400
C3027       C  0.67361532  0.59055248  0.16470401     0.36200
C3028       C  0.65753738  0.61243291  0.14789110    -0.25800
C3029       C  0.62563049  0.61420446  0.14856087    -0.15000
C3030       C  0.61008423  0.59090650  0.16500688     0.37300
N3031       N  0.57770594  0.59019915  0.16622803    -0.89300
H3032       H  0.61355876  0.55135351  0.19326612     0.18400
H3033       H  0.67053773  0.62759493  0.13389080     0.18400
N3034       N  0.70614619  0.59150382  0.16523557    -0.88300
H3035       H  0.57104878  0.59118345  0.18893909     0.35800
H3036       H  0.57043733  0.56945577  0.15742645     0.40900
H3037       H  0.71273263  0.59681233  0.18736172     0.40500
H3038       H  0.71436273  0.60899534  0.15142673     0.35400
C3039       C  0.65219857  0.42909513  0.33762502    -0.26300
C3040       C  0.64712958  0.42831569  0.30636871    -0.14400
C3041       C  0.62810423  0.40561101  0.29452374     0.36200
C3042       C  0.61434286  0.38474799  0.31432043    -0.25800
C3043       C  0.61672513  0.38686895  0.34638330    -0.15000
C3044       C  0.63806579  0.40872148  0.35755911     0.37300
N3045       N  0.64680132  0.41075508  0.38880529    -0.89300
H3046       H  0.66814454  0.44538541  0.34670975     0.18400
H3047       H  0.60193849  0.36662507  0.30372574     0.18400
N3048       N  0.62267886  0.40244610  0.26253261    -0.88300
H3049       H  0.65894515  0.39137699  0.39494758     0.35800
H3050       H  0.62802067  0.41338932  0.40276103     0.40900
H3051       H  0.63253176  0.42012003  0.25025587     0.40500
H3052       H  0.59938136  0.40454976  0.25898875     0.35400
C3053       C  0.34002182  0.35183462  0.55212054    -0.26300
C3054       C  0.33970948  0.35410274  0.58414482    -0.14400
C3055       C  0.31952016  0.33401996  0.60004379     0.36200
C3056       C  0.30129479  0.31379539  0.58420253    -0.25800
C3057       C  0.30303949  0.31071250  0.55276772    -0.15000
C3058       C  0.32195288  0.33075992  0.53638279     0.37300
N3059       N  0.32338287  0.32933402  0.50385169    -0.89300
H3060       H  0.35577260  0.36503932  0.53891402     0.18400
H3061       H  0.28699389  0.29866153  0.59728503     0.18400
N3062       N  0.31813022  0.33118900  0.63241060    -0.88300
H3063       H  0.33887386  0.34511531  0.49529509     0.35800
H3064       H  0.30218640  0.33574202  0.49547253     0.40900
H3065       H  0.31614553  0.35203273  0.64314676     0.40500
H3066       H  0.33655801  0.31874045  0.64029883     0.35400
C3067       C  0.17015938  0.29429977  0.43482190    -0.26300
C3068       C  0.19671873  0.30494713  0.44789705    -0.14400
C3069       C  0.20277224  0.33621896  0.44765439     0.36200
C3070       C  0.18217433  0.35613839  0.43316699    -0.25800
C3071       C  0.15603159  0.34543306  0.41784078    -0.15000
C3072       C  0.14940428  0.31369323  0.42098338     0.37300
N3073       N  0.12092621  0.30063488  0.41257774    -0.89300
H3074       H  0.16467810  0.27035366  0.43648832     0.18400
H3075       H  0.18689147  0.38024893  0.43312456     0.18400
N3076       N  0.22935285  0.34765206  0.46244906    -0.88300
H3077       H  0.12506139  0.28296744  0.39737737     0.35800
H3078       H  0.11103141  0.29101990  0.43188110     0.40900
H3079       H  0.22724474  0.34303883  0.48564702     0.40500
H3080       H  0.23051852  0.37122549  0.46018726     0.35400
C3081       C  0.35483962  0.14172583  0.40531352    -0.26300
C3082       C  0.37615012  0.16072227  0.39082960    -0.14400
C3083       C  0.37642023  0.19182591  0.39985572     0.36200
C3084       C  0.35394557  0.20306290  0.41965716    -0.25800
C3085       C  0.33155397  0.18415130  0.43206548    -0.15000
C3086       C  0.33231076  0.15287219  0.42468873     0.37300
N3087       N  0.30971723  0.13231276  0.43614103    -0.89300
H3088       H  0.35463533  0.11779596  0.39997521     0.18400
H3089       H  0.35451448  0.22679935  0.42589086     0.18400
N3090       N  0.39998572  0.21209698  0.39059568    -0.88300
H3091       H  0.31413699  0.11003646  0.42943985     0.35800
H3092       H  0.28909735  0.13833530  0.42613923     0.40900
H3093       H  0.41073070  0.22027221  0.41002986     0.40500
H3094       H  0.39001775  0.23062148  0.37954624     0.35400
C3095       C  0.16245198  0.15999543  0.57437262    -0.26300
C3096       C  0.16191582  0.19177865  0.57476310    -0.14400
C3097       C  0.13885941  0.20660166  0.59094310     0.36200
C3098       C  0.11823600  0.18925380  0.60787758    -0.25800
C3099       C  0.12054618  0.15712945  0.61064374    -0.15000
C3100       C  0.14196975  0.14266109  0.59154032     0.37300
N3101       N  0.14354688  0.11023990  0.58998818    -0.89300
H3102       H  0.17922595  0.14840622  0.56075113     0.18400
H3103       H  0.10006348  0.20159171  0.61854445     0.18400
N3104       N  0.13502410  0.23900301  0.59013611    -0.88300
H3105       H  0.16541747  0.10346891  0.59601075     0.35800
H3106       H  0.13984704  0.10387889  0.56748989     0.40900
H3107       H  0.15119725  0.24951915  0.57645361     0.40500
H3108       H  0.13837027  0.24705432  0.61213895     0.35400
C3109       C  0.30135421  0.12102591  0.58378716    -0.26300
C3110       C  0.30056484  0.15278016  0.58423071    -0.14400
C3111       C  0.31842362  0.16807189  0.60589704     0.36200
C3112       C  0.33882493  0.15187026  0.62398199    -0.25800
C3113       C  0.34260039  0.12020488  0.62124733    -0.15000
C3114       C  0.32111766  0.10467297  0.60278611     0.37300
N3115       N  0.32011808  0.07221756  0.60220964    -0.89300
H3116       H  0.28666309  0.10870750  0.56850763     0.18400
H3117       H  0.35156634  0.16475888  0.64035958     0.18400
N3118       N  0.31650178  0.20031345  0.60949295    -0.88300
H3119       H  0.32350922  0.06507134  0.57989793     0.35800
H3120       H  0.29846289  0.06537911  0.60881808     0.40900
H3121       H  0.33791981  0.20957299  0.60562973     0.40500
H3122       H  0.31043473  0.20480144  0.63194229     0.35400
C3123       C  0.18474903  0.12426558  0.43674209    -0.26300
C3124       C  0.18587106  0.15585351  0.43498149    -0.14400
C3125       C  0.16806977  0.17075484  0.41259508     0.36200
C3126       C  0.15122815  0.15381273  0.39204015    -0.25800
C3127       C  0.15182272  0.12183134  0.39178649    -0.15000
C3128       C  0.16750201  0.10721443  0.41653898     0.37300
N3129       N  0.16779337  0.07505686  0.42153307    -0.89300
H3130       H  0.19716189  0.11241510  0.45439569     0.18400
H3131       H  0.13701265  0.16647251  0.37674248     0.18400
N3132       N  0.16639749  0.20312387  0.40969065    -0.88300
H3133       H  0.14675396  0.06806237  0.42958721     0.35800
H3134       H  0.17380039  0.06352267  0.40187724     0.40900
H3135       H  0.18812852  0.21183839  0.40637176     0.40500
H3136       H  0.15671814  0.21216576  0.42926853     0.35400
C3137       C  0.46131237  0.18119149  0.31694458    -0.26300
C3138       C  0.44464480  0.20300012  0.30084513    -0.14400
C3139       C  0.41395932  0.20719149  0.30827232     0.36200
C3140       C  0.40075782  0.18935572  0.33098030    -0.25800
C3141       C  0.41714460  0.16730000  0.34779216    -0.15000
C3142       C  0.44807394  0.16298831  0.33958886     0.37300
N3143       N  0.46594270  0.13889101  0.35207192    -0.89300
H3144       H  0.48477195  0.17726165  0.31101175     0.18400
H3145       H  0.37688426  0.19244966  0.33514684     0.18400
N3146       N  0.39503939  0.22807876  0.29202116    -0.88300
H3147       H  0.48530390  0.14835031  0.36182110     0.35800
H3148       H  0.47293327  0.12487277  0.33435748     0.40900
H3149       H  0.39578663  0.22275646  0.26895937     0.40500
H3150       H  0.40338176  0.25001542  0.29510772     0.35400
C3151       C  0.55307721  0.36042594  0.33097413    -0.26300
C3152       C  0.57458063  0.34559318  0.34981405    -0.14400
C3153       C  0.57442310  0.31299133  0.34908765     0.36200
C3154       C  0.55973955  0.29811114  0.32524925    -0.25800
C3155       C  0.54201755  0.31385481  0.30416059    -0.15000
C3156       C  0.53718885  0.34515045  0.30830555     0.37300
N3157       N  0.51787084  0.36247099  0.28868700    -0.89300
H3158       H  0.55057818  0.38484417  0.33199699     0.18400
H3159       H  0.56136966  0.27361364  0.32378326     0.18400
N3160       N  0.58527160  0.29369337  0.37306928    -0.88300
H3161       H  0.49584505  0.35411011  0.29061883     0.35800
H3162       H  0.52521601  0.35978444  0.26634038     0.40900
H3163       H  0.58617503  0.30413611  0.39407668     0.40500
H3164       H  0.60578960  0.28369064  0.36701003     0.35400
C3165       C  0.60235999  0.16416249  0.20371631    -0.26300
C3166       C  0.57948897  0.17898284  0.18763195    -0.14400
C3167       C  0.57627988  0.17363464  0.15625593     0.36200
C3168       C  0.59476893  0.15218694  0.14228899    -0.25800
C3169       C  0.61638112  0.13484806  0.15850332    -0.15000
C3170       C  0.62125926  0.14274500  0.18959651     0.37300
N3171       N  0.64623135  0.13113388  0.20673586    -0.89300
H3172       H  0.60566505  0.16928089  0.22750037     0.18400
H3173       H  0.59133680  0.14810302  0.11832364     0.18400
N3174       N  0.55473858  0.18964960  0.13760382    -0.88300
H3175       H  0.65978406  0.14942336  0.21319581     0.35800
H3176       H  0.63781612  0.12123220  0.22659513     0.40900
H3177       H  0.54326740  0.20655647  0.14941147     0.40500
H3178       H  0.53857530  0.17398547  0.13032321     0.35400
C3179       C  0.40276910  0.32576551  0.15700189    -0.26300
C3180       C  0.42343732  0.33468128  0.17922952    -0.14400
C3181       C  0.42618183  0.36571889  0.18617362     0.36200
C3182       C  0.40700642  0.38658106  0.17180745    -0.25800
C3183       C  0.38394663  0.37782179  0.15137188    -0.15000
C3184       C  0.38393378  0.34675627  0.14224645     0.37300
N3185       N  0.36749869  0.33637540  0.11632571    -0.89300
H3186       H  0.40219880  0.30225462  0.14991261     0.18400
H3187       H  0.40978855  0.41020055  0.17740005     0.18400
N3188       N  0.44892285  0.37729182  0.20639392    -0.88300
H3189       H  0.35374847  0.31825363  0.12304606     0.35800
H3190       H  0.38298033  0.32815745  0.10045622     0.40900
H3191       H  0.46306479  0.36027065  0.21477062     0.40500
H3192       H  0.43783168  0.38672085  0.22502299     0.35400
C3193       C  0.58465863  0.30753589  0.11999727    -0.26300
C3194       C  0.57099401  0.31898670  0.14605971    -0.14400
C3195       C  0.57799521  0.34881946  0.15537695     0.36200
C3196       C  0.60001387  0.36533556  0.13954377    -0.25800
C3197       C  0.61701831  0.35267308  0.11560937    -0.15000
C3198       C  0.60694805  0.32399540  0.10436373     0.37300
N3199       N  0.61830459  0.31145629  0.07672430    -0.89300
H3200       H  0.57843805  0.28518776  0.11194701     0.18400
H3201       H  0.60471991  0.38813603  0.14705853     0.18400
N3202       N  0.56332131  0.36327288  0.18060623    -0.88300
H3203       H  0.62751292  0.29010782  0.08153645     0.35800
H3204       H  0.60010970  0.30835841  0.06190568     0.40900
H3205       H  0.54598452  0.34995370  0.18955731     0.40500
H3206       H  0.55279427  0.38290987  0.17239970     0.35400
C3207       C  0.43490046  0.15916160  0.14421809    -0.26300
C3208       C  0.43771831  0.19050768  0.13953019    -0.14400
C3209       C  0.41842797  0.20499025  0.11857704     0.36200
C3210       C  0.39586832  0.18807837  0.10397337    -0.25800
C3211       C  0.39054081  0.15707344  0.11093960    -0.15000
C3212       C  0.41209570  0.14234354  0.12992240     0.37300
N3213       N  0.41016430  0.11042886  0.13588511    -0.89300
H3214       H  0.45015247  0.14763284  0.15970329     0.18400
H3215       H  0.38256456  0.19969689  0.08700375     0.18400
N3216       N  0.42103466  0.23705468  0.11290041    -0.88300
H3217       H  0.40808666  0.10711892  0.15927414     0.35800
H3218       H  0.43043161  0.10041298  0.12895344     0.40900
H3219       H  0.41527877  0.24824433  0.13291196     0.40500
H3220       H  0.40536109  0.24415430  0.09655663     0.35400
C3221       C  0.32920113  0.55474965  0.29916851    -0.26300
C3222       C  0.29887491  0.55811529  0.30756796    -0.14400
C3223       C  0.29211127  0.57276840  0.33481478     0.36200
C3224       C  0.31535076  0.58466348  0.35259237    -0.25800
C3225       C  0.34614450  0.58455175  0.34329880    -0.15000
C3226       C  0.35280210  0.56645732  0.31714393     0.37300
N3227       N  0.38290297  0.55784406  0.30884793    -0.89300
H3228       H  0.33470602  0.54158888  0.27923242     0.18400
H3229       H  0.30839975  0.59360570  0.37420458     0.18400
N3230       N  0.26132832  0.57595935  0.34452242    -0.88300
H3231       H  0.39231429  0.54477193  0.32629173     0.35800
H3232       H  0.39620785  0.57679410  0.30471286     0.40900
H3233       H  0.25669831  0.59910623  0.34684928     0.40500
H3234       H  0.25916970  0.56574712  0.36585356     0.35400
C3235       C  0.31940724  0.43251282  0.20869942    -0.26300
C3236       C  0.30339000  0.45659731  0.19576399    -0.14400
C3237       C  0.30861296  0.46437828  0.16527524     0.36200
C3238       C  0.32912212  0.44721766  0.14833524    -0.25800
C3239       C  0.34568159  0.42252083  0.16077649    -0.15000
C3240       C  0.34015491  0.41538070  0.19222249     0.37300
N3241       N  0.35298611  0.39041741  0.20871714    -0.89300
H3242       H  0.31524873  0.42631704  0.23216042     0.18400
H3243       H  0.33200722  0.45296354  0.12460754     0.18400
N3244       N  0.29217322  0.48879014  0.15108207    -0.88300
H3245       H  0.37472900  0.39552690  0.21623515     0.35800
H3246       H  0.35100922  0.36978458  0.19752113     0.40900
H3247       H  0.26945608  0.48232478  0.14993245     0.40500
H3248       H  0.29933911  0.49206074  0.12871925     0.35400
C3249       C  0.14977104  0.57654495  0.16320298    -0.26300
C3250       C  0.18146342  0.57446215  0.16500519    -0.14400
C3251       C  0.19851692  0.59037386  0.14297757     0.36200
C3252       C  0.18368165  0.60871444  0.12120711    -0.25800
C3253       C  0.15176876  0.61336192  0.12137654    -0.15000
C3254       C  0.13504001  0.59496464  0.14190688     0.37300
N3255       N  0.10270180  0.59549011  0.14212784    -0.89300
H3256       H  0.13568613  0.56403542  0.17898352     0.18400
H3257       H  0.19776711  0.61927638  0.10418249     0.18400
N3258       N  0.23078281  0.58806768  0.14162831    -0.88300
H3259       H  0.09542180  0.60186654  0.16372630     0.35800
H3260       H  0.09493455  0.57348357  0.13803834     0.40900
H3261       H  0.23661447  0.56520059  0.13940704     0.40500
H3262       H  0.23980624  0.59631770  0.16187313     0.35400
C3263       C  0.18435841  0.38210284  0.36875488    -0.26300
C3264       C  0.15390756  0.38856426  0.37676493    -0.14400
C3265       C  0.13939637  0.41211026  0.35997295     0.36200
C3266       C  0.15584371  0.43040424  0.33976328    -0.25800
C3267       C  0.18650386  0.42524458  0.33388908    -0.15000
C3268       C  0.20077500  0.40012982  0.34798269     0.37300
N3269       N  0.23177177  0.39220106  0.34212787    -0.89300
H3270       H  0.19582594  0.36246038  0.37786606     0.18400
H3271       H  0.14424533  0.44875954  0.32812027     0.18400
N3272       N  0.10773073  0.41786413  0.36357629    -0.88300
H3273       H  0.24362454  0.39411965  0.36254370     0.35800
H3274       H  0.24194399  0.40732527  0.32701536     0.40900
H3275       H  0.09729400  0.41522708  0.34247547     0.40500
H3276       H  0.10491477  0.44041924  0.37024009     0.35400
C3277       C  0.11625336  0.56720018  0.31877790    -0.26300
C3278       C  0.14339838  0.57436574  0.30461766    -0.14400
C3279       C  0.15463874  0.60425124  0.30655396     0.36200
C3280       C  0.13967438  0.62553584  0.32457476    -0.25800
C3281       C  0.11568493  0.61696164  0.34387493    -0.15000
C3282       C  0.10188754  0.58808271  0.33778703     0.37300
N3283       N  0.07307473  0.57960756  0.35001842    -0.89300
H3284       H  0.10663448  0.54475319  0.31605212     0.18400
H3285       H  0.14851367  0.64839953  0.32528964     0.18400
N3286       N  0.18136056  0.61353912  0.29067851    -0.88300
H3287       H  0.07569077  0.55932663  0.36216945     0.35800
H3288       H  0.05836986  0.57536122  0.33196350     0.40900
H3289       H  0.17838145  0.60895920  0.26763191     0.40500
H3290       H  0.19969295  0.60085921  0.29867673     0.35400
C3291       C  0.13409714  0.40464495  0.20728707    -0.26300
C3292       C  0.15316120  0.42520639  0.19278533    -0.14400
C3293       C  0.15836472  0.42245589  0.16135653     0.36200
C3294       C  0.14196035  0.40089750  0.14489656    -0.25800
C3295       C  0.11955763  0.38229303  0.15858625    -0.15000
C3296       C  0.11826681  0.38252102  0.19104900     0.37300
N3297       N  0.10235468  0.36005447  0.20828536    -0.89300
H3298       H  0.13198859  0.40526971  0.23177633     0.18400
H3299       H  0.14500081  0.40052105  0.12053800     0.18400
N3300       N  0.17912145  0.44171603  0.14511633    -0.88300
H3301       H  0.08704308  0.37109965  0.22254060     0.35800
H3302       H  0.11792633  0.34864731  0.22208725     0.40900
H3303       H  0.18968844  0.45730404  0.15933063     0.40500
H3304       H  0.16656570  0.45442970  0.12946876     0.35400
C3305       C  0.79161719  0.83002109  0.06729563    -0.26300
C3306       C  0.80711761  0.81024253  0.04790704    -0.14400
C3307       C  0.83830598  0.81557677  0.04277425     0.36200
C3308       C  0.85346355  0.83719079  0.05984319    -0.25800
C3309       C  0.83904699  0.85454129  0.08249316    -0.15000
C3310       C  0.80682512  0.85259582  0.08382199     0.37300
N3311       N  0.78887870  0.87379283  0.10046392    -0.89300
H3312       H  0.76735058  0.82791572  0.06996229     0.18400
H3313       H  0.87764028  0.83900508  0.05651305     0.18400
N3314       N  0.85576765  0.79935700  0.02079914    -0.88300
H3315       H  0.77486497  0.86166945  0.11524977     0.35800
H3316       H  0.77482480  0.88521620  0.08511657     0.40900
H3317       H  0.84544160  0.80150544  0.99956004     0.40500
H3318       H  0.85738103  0.77656347  0.02718683     0.35400
C3319       C  0.67697527  0.82594296  0.96493908    -0.26300
C3320       C  0.69488388  0.80666288  0.94712103    -0.14400
C3321       C  0.69407904  0.81048110  0.91524265     0.36200
C3322       C  0.67609254  0.83305523  0.90247124    -0.25800
C3323       C  0.65773242  0.85258106  0.91992870    -0.15000
C3324       C  0.65810165  0.84822183  0.95199202     0.37300
N3325       N  0.63859440  0.86468335  0.97185289    -0.89300
H3326       H  0.67678877  0.82319737  0.98936587     0.18400
H3327       H  0.67618771  0.83518036  0.87799221     0.18400
N3328       N  0.71047689  0.79146101  0.89475816    -0.88300
H3329       H  0.65207730  0.87614042  0.98756877     0.35800
H3330       H  0.62526472  0.84917595  0.98386998     0.40900
H3331       H  0.70374660  0.76893662  0.89796741     0.40500
H3332       H  0.73363816  0.79378529  0.89881439     0.35400
C3333       C  0.67179886  0.69611174  0.10420926    -0.26300
C3334       C  0.66896387  0.69416366  0.07272271    -0.14400
C3335       C  0.64330190  0.67967522  0.06061202     0.36200
C3336       C  0.62300765  0.66497477  0.08007763    -0.25800
C3337       C  0.62821519  0.66172952  0.11174810    -0.15000
C3338       C  0.65203330  0.68044218  0.12395452     0.37300
N3339       N  0.65822823  0.68344260  0.15582628    -0.89300
H3340       H  0.69089983  0.70823951  0.11366301     0.18400
H3341       H  0.60342347  0.65511084  0.06936385     0.18400
N3342       N  0.63728010  0.67874458  0.02852838    -0.88300
H3343       H  0.68046038  0.67642571  0.15971484     0.35800
H3344       H  0.64501565  0.66912010  0.16894782     0.40900
H3345       H  0.65302263  0.69131786  0.01612511     0.40500
H3346       H  0.61643077  0.68930786  0.02479606     0.35400
C3347       C  0.86646425  0.70380038  0.92085504    -0.26300
C3348       C  0.83566901  0.69695295  0.91865936    -0.14400
C3349       C  0.82614053  0.67432615  0.89827945     0.36200
C3350       C  0.84778368  0.65795872  0.88178798    -0.25800
C3351       C  0.87915531  0.66231032  0.88618241    -0.15000
C3352       C  0.88809655  0.68733800  0.90446763     0.37300
N3353       N  0.91940400  0.69491183  0.90799978    -0.89300
H3354       H  0.87392160  0.72146905  0.93613400     0.18400
H3355       H  0.83962556  0.64160986  0.86564132     0.18400
N3356       N  0.79455134  0.66704515  0.89531855    -0.88300
H3357       H  0.92494065  0.69355714  0.93101402     0.35800
H3358       H  0.92235413  0.71739998  0.90097013     0.40900
H3359       H  0.78733820  0.65785347  0.91598997     0.40500
H3360       H  0.79127236  0.65014480  0.87910338     0.35400
C3361       C  0.69793301  0.62085449  0.92315527    -0.26300
C3362       C  0.69583733  0.65237309  0.92538407    -0.14400
C3363       C  0.67575871  0.66804619  0.90590352     0.36200
C3364       C  0.65751014  0.65200411  0.88572700    -0.25800
C3365       C  0.65669521  0.62003364  0.88561760    -0.15000
C3366       C  0.67927347  0.60468644  0.90315814     0.37300
N3367       N  0.68254053  0.57242925  0.90180117    -0.89300
H3368       H  0.71416321  0.60859387  0.93698594     0.18400
H3369       H  0.64371543  0.66529226  0.87045174     0.18400
N3370       N  0.67305585  0.70044294  0.90695264    -0.88300
H3371       H  0.67954175  0.56350176  0.92360147     0.35800
H3372       H  0.70464512  0.56757341  0.89496261     0.40900
H3373       H  0.65061130  0.70584420  0.91207280     0.40500
H3374       H  0.67796286  0.70914785  0.88541674     0.35400
C3375       C  0.83912743  0.67024855  0.08484401    -0.26300
C3376       C  0.81876499  0.65283328  0.06765576    -0.14400
C3377       C  0.81775353  0.62127656  0.07293728     0.36200
C3378       C  0.83553840  0.60855195  0.09599820    -0.25800
C3379       C  0.85426014  0.62630421  0.11526142    -0.15000
C3380       C  0.85734129  0.65755232  0.10761570     0.37300
N3381       N  0.87988662  0.67656362  0.12100662    -0.89300
H3382       H  0.84143519  0.69434524  0.08044367     0.18400
H3383       H  0.83354599  0.58436690  0.09996481     0.18400
N3384       N  0.79923568  0.60138290  0.05530498    -0.88300
H3385       H  0.86916657  0.69557785  0.13013207     0.35800
H3386       H  0.89413327  0.68445304  0.10378561     0.40900
H3387       H  0.80488918  0.60407549  0.03243760     0.40500
H3388       H  0.77656640  0.60722112  0.05847929     0.35400
C3389       C  0.29964923  0.83966033  0.44682610    -0.26300
C3390       C  0.30777962  0.80901068  0.44652422    -0.14400
C3391       C  0.33391958  0.80012856  0.43086532     0.36200
C3392       C  0.35039293  0.82174301  0.41475701    -0.25800
C3393       C  0.34234086  0.85301778  0.41322625    -0.15000
C3394       C  0.31647399  0.86180681  0.43094690     0.37300
N3395       N  0.30642677  0.89265134  0.43415879    -0.89300
H3396       H  0.27990509  0.84656120  0.45961069     0.18400
H3397       H  0.37112433  0.81329112  0.40513600     0.18400
N3398       N  0.34512625  0.76939560  0.43121008    -0.88300
H3399       H  0.28455394  0.89413985  0.42524840     0.35800
H3400       H  0.31944238  0.90785194  0.42187974     0.40900
H3401       H  0.33173813  0.75480653  0.44415555     0.40500
H3402       H  0.36638426  0.76960469  0.44162259     0.35400
C3403       C  0.20117131  0.83510606  0.55165078    -0.26300
C3404       C  0.19228094  0.80469232  0.55250015    -0.14400
C3405       C  0.16482317  0.79710557  0.56674751     0.36200
C3406       C  0.14796699  0.81950135  0.58105152    -0.25800
C3407       C  0.15792441  0.85004881  0.58353043    -0.15000
C3408       C  0.18384923  0.85787997  0.56555021     0.37300
N3409       N  0.19348961  0.88844247  0.56038112    -0.89300
H3410       H  0.22139452  0.84142247  0.53926805     0.18400
H3411       H  0.12622809  0.81224407  0.58941334     0.18400
N3412       N  0.15353604  0.76660799  0.56776951    -0.88300
H3413       H  0.19924449  0.89865028  0.58077601     0.35800
H3414       H  0.17644018  0.90049699  0.54932043     0.40900
H3415       H  0.17015982  0.75248826  0.57709235     0.40500
H3416       H  0.14850703  0.75950557  0.54578954     0.35400
C3417       C  0.14080012  0.69587985  0.42494499    -0.26300
C3418       C  0.17171203  0.69007397  0.42175101    -0.14400
C3419       C  0.18110850  0.66702400  0.40178052     0.36200
C3420       C  0.15932220  0.65018899  0.38571438    -0.25800
C3421       C  0.12808015  0.65712704  0.38708915    -0.15000
C3422       C  0.11916609  0.68012825  0.40787441     0.37300
N3423       N  0.08797230  0.68813079  0.41131764    -0.89300
H3424       H  0.13328032  0.71301938  0.44078385     0.18400
H3425       H  0.16728077  0.63106758  0.37290171     0.18400
N3426       N  0.21267358  0.65960378  0.39905351    -0.88300
H3427       H  0.08553896  0.71116033  0.40606925     0.35800
H3428       H  0.08203863  0.68497982  0.43405971     0.40900
H3429       H  0.22325224  0.67783500  0.38813094     0.40500
H3430       H  0.21572342  0.64089373  0.38492501     0.35400
C3431       C  0.32344691  0.67677801  0.59913117    -0.26300
C3432       C  0.33360752  0.69877131  0.57860024    -0.14400
C3433       C  0.36496176  0.70433978  0.57646047     0.36200
C3434       C  0.38507248  0.68749329  0.59474285    -0.25800
C3435       C  0.37521225  0.66498245  0.61566028    -0.15000
C3436       C  0.34336725  0.65923194  0.61664384     0.37300
N3437       N  0.33065119  0.63398595  0.63273734    -0.89300
H3438       H  0.29952746  0.67130613  0.59981439     0.18400
H3439       H  0.40907177  0.69182621  0.59233887     0.18400
N3440       N  0.37739406  0.72596083  0.55539008    -0.88300
H3441       H  0.31977622  0.61987482  0.61717475     0.35800
H3442       H  0.31417875  0.64217298  0.64759685     0.40900
H3443       H  0.36050100  0.73735276  0.54336078     0.40500
H3444       H  0.39015798  0.71393998  0.53952971     0.35400
C3445       C  0.17768691  0.60909633  0.59995261    -0.26300
C3446       C  0.15874715  0.62719532  0.61875708    -0.14400
C3447       C  0.16345099  0.65946727  0.61713307     0.36200
C3448       C  0.18175169  0.67137772  0.59415320    -0.25800
C3449       C  0.19721699  0.65307965  0.57338218    -0.15000
C3450       C  0.19624158  0.62145868  0.57737832     0.37300
N3451       N  0.21226111  0.60116524  0.55788151    -0.89300
H3452       H  0.17615754  0.58460927  0.60104674     0.18400
H3453       H  0.18409612  0.69583794  0.59274579     0.18400
N3454       N  0.15231701  0.68155129  0.63827858    -0.88300
H3455       H  0.23540182  0.60553663  0.55985500     0.35800
H3456       H  0.20547418  0.60525408  0.53552115     0.40900
H3457       H  0.14369801  0.67290875  0.65828156     0.40500
H3458       H  0.13599604  0.69498477  0.62748805     0.35400
C3459       C  0.33805035  0.63517265  0.43902269    -0.26300
C3460       C  0.31606822  0.65493735  0.42754289    -0.14400
C3461       C  0.31492383  0.66017368  0.39603938     0.36200
C3462       C  0.33429122  0.64433261  0.37672539    -0.25800
C3463       C  0.35454602  0.62181444  0.38748184    -0.15000
C3464       C  0.35807833  0.61965222  0.41972651     0.37300
N3465       N  0.38298761  0.60412983  0.43354283    -0.89300
H3466       H  0.34062425  0.63268815  0.46335357     0.18400
H3467       H  0.33194429  0.64816810  0.35254931     0.18400
N3468       N  0.29331148  0.68082086  0.38323180    -0.88300
H3469       H  0.37432144  0.58836364  0.44905763     0.35800
H3470       H  0.39563206  0.61990001  0.44583311     0.40900
H3471       H  0.27976381  0.66883058  0.36799401     0.40500
H3472       H  0.30510127  0.69743026  0.37104498     0.35400
loop_ 
_geom_bond_atom_site_label_1 
_geom_bond_atom_site_label_2 
_geom_bond_distance 
_geom_bond_site_symmetry_2 
_ccdc_geom_bond_type 
Zn1           O5   1.954       .  S
Zn1           O6   2.057       .  S
Zn1          O10   2.038       .  S
Zn1          O17   2.084       .  S
Zn2           O5   1.900       .  S
Zn2           O7   2.006       .  S
Zn2           O9   1.980       .  S
Zn2          O13   1.962       .  S
Zn3           O5   1.914       .  S
Zn3           O8   2.015       .  S
Zn3          O11   2.035       .  S
Zn3          O14   1.979       .  S
Zn4           O5   1.944       .  S
Zn4          O12   2.055       .  S
Zn4          O15   2.061       .  S
Zn4          O16   1.974       .  S
O6           C18   1.280       .  A
O7           C19   1.272       .  A
O8           C20   1.277       .  A
O9           C18   1.272       .  A
O10          C20   1.278       .  A
O11          C19   1.275       .  A
O12          C21   1.280       .  A
O13          C22   1.269       .  A
O14          C21   1.270       .  A
O15          C22   1.279       .  A
O16          C23   1.270       .  A
O17          C23   1.282       .  A
C18        C3404   1.478       .  S
C19        C3418   1.484       .  S
C20        C3390   1.471       .  S
C21        C3460   1.483       .  S
C22        C3449   1.485       .  S
C23        C3432   1.480       .  S
Zn24         O28   1.941   1_554  S
Zn24         O29   2.069       .  S
Zn24         O33   2.064   1_554  S
Zn24         O40   2.014       .  S
Zn25         O28   1.896   1_554  S
Zn25         O30   2.009   1_554  S
Zn25         O32   1.963       .  S
Zn25         O36   1.974       .  S
Zn26         O28   1.907       .  S
Zn26         O31   1.949       .  S
Zn26         O34   2.012       .  S
Zn26         O37   1.991       .  S
Zn27         O28   1.952   1_554  S
Zn27         O35   2.033   1_554  S
Zn27         O38   2.047       .  S
Zn27         O39   2.066       .  S
O29          C41   1.281       .  A
O30          C42   1.270       .  A
O31          C43   1.267       .  A
O32          C41   1.270       .  A
O33          C43   1.281       .  A
O34          C42   1.271       .  A
O35          C44   1.277       .  A
O36          C45   1.270       .  A
O37          C44   1.272       .  A
O38          C45   1.280       .  A
O39          C46   1.280       .  A
O40          C46   1.275       .  A
C41        C3376   1.491       .  S
C42        C3348   1.478       .  S
C43        C3362   1.481       .  S
C44        C3320   1.491       .  S
C45        C3306   1.490       .  S
C46        C3334   1.482       .  S
Zn47         O51   1.887       .  S
Zn47         O52   2.028       .  S
Zn47         O56   1.973       .  S
Zn47         O63   1.989       .  S
Zn48         O51   1.913       .  S
Zn48         O53   1.985       .  S
Zn48         O55   2.051       .  S
Zn48         O59   1.994       .  S
Zn49         O51   1.913       .  S
Zn49         O54   2.049       .  S
Zn49         O57   2.039       .  S
Zn49         O60   1.976       .  S
Zn50         O51   1.944       .  S
Zn50         O58   2.105       .  S
Zn50         O61   2.018       .  S
Zn50         O62   2.072       .  S
O52          C64   1.275       .  A
O53          C65   1.269       .  A
O54          C66   1.278       .  A
O55          C64   1.276       .  A
O56          C66   1.268       .  A
O57          C65   1.279       .  A
O58          C67   1.284       .  A
O59          C68   1.277       .  A
O60          C67   1.271       .  A
O61          C68   1.277       .  A
O62          C69   1.283       .  A
O63          C69   1.275       .  A
C64        C3267   1.487       .  S
C65        C3292   1.465       .  S
C66        C3278   1.469       .  S
C67        C3250   1.505       .  S
C68        C3236   1.476       .  S
C69        C3222   1.480       .  S
Zn70         O74   1.905       .  S
Zn70         O75   1.995       .  S
Zn70         O79   1.996       .  S
Zn70         O86   2.006       .  S
Zn71         O74   1.917       .  S
Zn71         O76   2.003       .  S
Zn71         O78   2.031       .  S
Zn71         O82   2.021       .  S
Zn72         O74   1.931       .  S
Zn72         O77   2.037       .  S
Zn72         O80   2.039       .  S
Zn72         O83   1.983       .  S
Zn73         O74   1.934       .  S
Zn73         O81   2.045       .  S
Zn73         O84   2.030       .  S
Zn73         O85   2.049       .  S
O75          C87   1.272       .  A
O76          C88   1.273       .  A
O77          C89   1.277       .  A
O78          C87   1.275       .  A
O79          C89   1.273       .  A
O80          C88   1.278       .  A
O81          C90   1.279       .  A
O82          C91   1.277       .  A
O83          C90   1.271       .  A
O84          C91   1.276       .  A
O85          C92   1.279       .  A
O86          C92   1.276       .  A
C87        C3166   1.470       .  S
C88        C3194   1.476       .  S
C89        C3208   1.481       .  S
C90        C3180   1.470       .  S
C91        C3155   1.479       .  S
C92        C3138   1.484       .  S
Zn93         O97   1.915       .  S
Zn93         O98   2.060       .  S
Zn93        O102   2.058       .  S
Zn93        O109   1.998       .  S
Zn94         O97   1.864       .  S
Zn94         O99   1.989       .  S
Zn94        O101   1.937       .  S
Zn94        O105   1.962       .  S
Zn95         O97   1.898       .  S
Zn95        O100   1.976       .  S
Zn95        O103   2.057       .  S
Zn95        O106   2.027       .  S
Zn96         O97   1.939       .  S
Zn96        O104   2.027       .  S
Zn96        O107   2.071       .  S
Zn96        O108   2.095       .  S
O98         C110   1.282       .  A
O99         C111   1.267       .  A
O100        C112   1.272       .  A
O101        C110   1.264       .  A
O102        C112   1.281       .  A
O103        C111   1.276       .  A
O104        C113   1.279       .  A
O105        C114   1.272       .  A
O106        C113   1.282       .  A
O107        C114   1.281       .  A
O108        C115   1.285       .  A
O109        C115   1.273       .  A
C110       C3124   1.484       .  S
C111       C3096   1.476       .  S
C112       C3110   1.488       .  S
C113       C3057   1.492       .  S
C114       C3068   1.472       .  S
C115       C3085   1.504       .  S
Zn116       O120   1.912       .  S
Zn116       O121   2.022       .  S
Zn116       O125   2.005       .  S
Zn116       O132   2.002       .  S
Zn117       O120   1.917       .  S
Zn117       O122   1.983       .  S
Zn117       O124   2.022       .  S
Zn117       O128   1.999       .  S
Zn118       O120   1.939       .  S
Zn118       O123   2.064       .  S
Zn118       O126   2.044       .  S
Zn118       O129   1.988       .  S
Zn119       O120   1.953       .  S
Zn119       O127   2.069       .  S
Zn119       O130   2.055       .  S
Zn119       O131   2.030       .  S
O121        C133   1.275       .  A
O122        C134   1.270       .  A
O123        C135   1.280       .  A
O124        C133   1.274       .  A
O125        C135   1.272       .  A
O126        C134   1.280       .  A
O127        C136   1.281       .  A
O128        C137   1.274       .  A
O129        C136   1.272       .  A
O130        C137   1.278       .  A
O131        C138   1.278       .  A
O132        C138   1.275       .  A
C133       C3001   1.493       .  S
C134       C3026   1.487       .  S
C135       C3040   1.479       .  S
C136       C3015   1.486       .  S
C137       C2973   1.472       .  S
C138       C2984   1.481       .  S
Zn139       O143   1.895   1_655  S
Zn139       O144   1.964       .  S
Zn139       O148   2.009   1_655  S
Zn139       O155   1.988       .  S
Zn140       O143   1.929   1_655  S
Zn140       O145   2.058   1_655  S
Zn140       O147   2.060       .  S
Zn140       O151   1.985       .  S
Zn141       O143   1.923       .  S
Zn141       O146   2.056       .  S
Zn141       O149   1.996       .  S
Zn141       O152   2.018       .  S
Zn142       O143   1.946   1_655  S
Zn142       O150   1.998   1_655  S
Zn142       O153   2.080       .  S
Zn142       O154   2.047       .  S
O144        C156   1.270       .  A
O145        C157   1.283       .  A
O146        C158   1.277       .  A
O147        C156   1.282       .  A
O148        C158   1.272       .  A
O149        C157   1.273       .  A
O150        C159   1.276       .  A
O151        C160   1.270       .  A
O152        C159   1.277       .  A
O153        C160   1.280       .  A
O154        C161   1.278       .  A
O155        C161   1.275       .  A
C156       C2945   1.477       .  S
C157       C2959   1.489       .  S
C158       C2914   1.500       .  S
C159       C2886   1.470       .  S
C160       C2928   1.490       .  S
C161       C2900   1.493       .  S
Zn162       O166   1.881   1_565  S
Zn162       O167   1.976       .  S
Zn162       O171   1.976   1_565  S
Zn162       O178   1.971       .  S
Zn163       O166   1.947   1_565  S
Zn163       O168   2.024   1_565  S
Zn163       O170   2.066       .  S
Zn163       O174   2.073       .  S
Zn164       O166   1.922       .  S
Zn164       O169   2.037       .  S
Zn164       O172   1.999       .  S
Zn164       O175   1.981       .  S
Zn165       O166   1.930   1_565  S
Zn165       O173   2.055   1_565  S
Zn165       O176   1.997       .  S
Zn165       O177   2.045       .  S
O167        C179   1.272       .  A
O168        C180   1.277       .  A
O169        C181   1.274       .  A
O170        C179   1.280       .  A
O171        C181   1.270       .  A
O172        C180   1.276       .  A
O173        C182   1.279       .  A
O174        C183   1.282       .  A
O175        C182   1.270       .  A
O176        C183   1.274       .  A
O177        C184   1.278       .  A
O178        C184   1.269       .  A
C179       C2805   1.492       .  S
C180       C2816   1.461       .  S
C181       C2833   1.486       .  S
C182       C2875   1.483       .  S
C183       C2844   1.480       .  S
C184       C2861   1.463       .  S
Zn185       O189   1.879       .  S
Zn185       O190   1.987       .  S
Zn185       O194   1.963       .  S
Zn185       O201   1.967       .  S
Zn186       O189   1.898       .  S
Zn186       O191   2.028       .  S
Zn186       O193   2.045       .  S
Zn186       O197   1.999       .  S
Zn187       O189   1.925       .  S
Zn187       O192   2.042       .  S
Zn187       O195   2.018       .  S
Zn187       O198   2.072       .  S
Zn188       O189   1.907       .  S
Zn188       O196   1.958       .  S
Zn188       O199   2.048       .  S
Zn188       O200   2.046       .  S
O190        C202   1.269       .  A
O191        C203   1.278       .  A
O192        C204   1.279       .  A
O193        C202   1.277       .  A
O194        C204   1.273       .  A
O195        C203   1.277       .  A
O196        C205   1.268       .  A
O197        C206   1.273       .  A
O198        C205   1.281       .  A
O199        C206   1.280       .  A
O200        C207   1.279       .  A
O201        C207   1.269       .  A
C202       C2749   1.469       .  S
C203       C2732   1.481       .  S
C204       C2718   1.485       .  S
C205       C2760   1.490       .  S
C206       C2774   1.472       .  S
C207       C2788   1.476       .  S
C208       C2690   1.570       .  S
C208       C2707   1.556       .  S
C208       C2763   1.562       .  S
C208       C2858   1.573       .  S
C209       C2662   1.567       .  S
C209       C2676   1.570       .  S
C209       C2830   1.572       .  S
C209       C2942   1.574       .  S
C210       C2620   1.582       .  S
C210       C2634   1.581       .  S
C210       C2648   1.561       .  S
C210       C2777   1.573       .  S
C211       C2595   1.576       .  S
C211       C2609   1.574       .  S
C211       C2917   1.594       .  S
C211       C3127   1.564       .  S
C212       C2550   1.575       .  S
C212       C2564   1.570       .  S
C212       C2581   1.565       .  S
C212       C3099   1.578       .  S
C213       C2511   1.578       .  S
C213       C2522   1.592       .  S
C213       C2536   1.574       .  S
C213       C3407   1.580       .  S
Zn214       O218   1.934   1_445  S
Zn214       O219   2.001       .  S
Zn214       O223   1.978   1_455  S
Zn214       O230   1.984       .  S
Zn215       O218   1.946   1_455  S
Zn215       O220   2.031   1_455  S
Zn215       O222   2.021   1_565  S
Zn215       O226   1.999       .  S
Zn216       O218   1.969       .  S
Zn216       O221   2.050   1_565  S
Zn216       O224   2.032       .  S
Zn216       O227   2.014       .  S
Zn217       O218   1.996   1_455  S
Zn217       O225   2.032       .  S
Zn217       O228   2.048       .  S
Zn217       O229   2.059   1_565  S
O219        C231   1.269       .  A
O220        C232   1.275       .  A
O221        C233   1.275       .  A
O222        C231   1.274       .  A
O223        C233   1.270       .  A
O224        C232   1.275       .  A
O225        C234   1.276   1_455  A
O226        C235   1.272       .  A
O227        C234   1.275       .  A
O228        C235   1.277       .  A
O229        C236   1.275       .  A
O230        C236   1.271       .  A
C231       C2567   1.489       .  S
C232       C2637   1.486       .  S
C233       C2665   1.484       .  S
C234       C2693   1.471       .  S
C235       C2539   1.476       .  S
C236       C2592   1.499       .  S
Zn237       O241   1.888       .  S
Zn237       O242   1.976       .  S
Zn237       O246   1.986       .  S
Zn237       O253   1.974       .  S
Zn238       O241   1.950       .  S
Zn238       O243   2.033       .  S
Zn238       O245   2.059       .  S
Zn238       O249   2.090       .  S
Zn239       O241   1.929       .  S
Zn239       O244   2.044       .  S
Zn239       O247   1.999       .  S
Zn239       O250   1.993       .  S
Zn240       O241   1.929       .  S
Zn240       O248   2.051       .  S
Zn240       O251   1.990       .  S
Zn240       O252   2.062       .  S
O242        C254   1.271       .  A
O243        C255   1.280       .  A
O244        C256   1.275       .  A
O245        C254   1.279       .  A
O246        C256   1.268       .  A
O247        C255   1.274       .  A
O248        C257   1.280       .  A
O249        C258   1.282       .  A
O250        C257   1.272       .  A
O251        C258   1.272       .  A
O252        C259   1.280       .  A
O253        C259   1.270       .  A
C254       C2679   1.495       .  S
C255       C2438   1.482       .  S
C256       C2469   1.495       .  S
C257       C2480   1.486       .  S
C258       C2452   1.486       .  S
C259       C2494   1.469       .  S
Zn260       O264   1.906   1_455  S
Zn260       O265   2.007       .  S
Zn260       O269   1.965       .  S
Zn260       O276   2.026       .  S
Zn261       O264   1.940       .  S
Zn261       O266   2.093       .  S
Zn261       O268   2.046   1_655  S
Zn261       O272   2.047       .  S
Zn262       O264   1.930       .  S
Zn262       O267   2.083   1_655  S
Zn262       O270   1.997       .  S
Zn262       O273   2.071       .  S
Zn263       O264   1.902       .  S
Zn263       O271   1.976       .  S
Zn263       O274   1.995       .  S
Zn263       O275   2.012   1_655  S
O265        C277   1.276       .  A
O266        C278   1.284       .  A
O267        C279   1.284       .  A
O268        C277   1.281       .  A
O269        C279   1.270       .  A
O270        C278   1.272       .  A
O271        C280   1.270       .  A
O272        C281   1.279       .  A
O273        C280   1.284       .  A
O274        C281   1.273       .  A
O275        C282   1.270       .  A
O276        C282   1.273       .  A
C277       C2396   1.487       .  S
C278       C2623   1.486       .  S
C279       C2525   1.485       .  S
C280       C2427   1.482       .  S
C281       C2385   1.469       .  S
C282       C2413   1.473       .  S
C283       C2357   1.575       .  S
C283       C2368   1.567       .  S
C283       C2410   1.561       .  S
C283       C3446   1.572       .  S
C284       C2340   1.580       .  S
C284       C2956   1.566       .  S
C284       C3071   1.573       .  S
C284       C3264   1.581       .  S
C285       C2312   1.590       .  S
C285       C2326   1.585       .  S
C285       C2424   1.572       .  S
C285       C2735   1.568       .  S
C286       C2298   1.563       .  S
C286       C2497   1.570       .  S
C286       C2931   1.575       .  S
C286       C2987   1.563       .  S
C287       C2256   1.569       .  S
C287       C2270   1.569       .  S
C287       C2287   1.568       .  S
C287       C2466   1.566       .  S
C288       C2228   1.557       .  S
C288       C2242   1.565       .  S
C288       C3281   1.570       .  S
C288       C3421   1.569       .  S
Zn289       O293   2.010       .  S
Zn289       O294   2.074       .  S
Zn289       O298   2.080       .  S
Zn289       O305   2.092       .  S
Zn290       O293   1.955   1_655  S
Zn290       O295   2.063       .  S
Zn290       O297   1.976       .  S
Zn290       O301   2.016       .  S
Zn291       O293   1.940       .  S
Zn291       O296   1.975       .  S
Zn291       O299   1.990   1_455  S
Zn291       O302   2.001       .  S
Zn292       O293   1.955       .  S
Zn292       O300   2.013       .  S
Zn292       O303   2.028   1_455  S
Zn292       O304   2.001       .  S
O294        C306   1.279   1_455  A
O295        C307   1.274       .  A
O296        C308   1.270       .  A
O297        C306   1.272       .  A
O298        C308   1.281       .  A
O299        C307   1.271       .  A
O300        C309   1.273       .  A
O301        C310   1.274       .  A
O302        C309   1.269       .  A
O303        C310   1.273       .  A
O304        C311   1.272       .  A
O305        C311   1.281       .  A
C306       C2273   1.499       .  S
C307       C2329   1.500       .  S
C308       C2354   1.485       .  S
C309       C2231   1.466       .  S
C310       C2301   1.472       .  S
C311       C2343   1.489       .  S
C312       C2200   1.571       .  S
C312       C2214   1.559       .  S
C312       C2998   1.568       .  S
C312       C3197   1.568       .  S
C313       C2175   1.583       .  S
C313       C2186   1.581       .  S
C313       C3029   1.571       .  S
C313       C3337   1.589       .  S
C314       C2116   1.572       .  S
C314       C2130   1.574       .  S
C314       C2144   1.571       .  S
C314       C2158   1.571       .  S
C315       C2060   1.569       .  S
C315       C2077   1.562       .  S
C315       C2088   1.574       .  S
C315       C2105   1.562       .  S
C316       C2018   1.577       .  S
C316       C2035   1.566       .  S
C316       C2046   1.563       .  S
C316       C3365   1.571       .  S
C317       C1990   1.576       .  S
C317       C2007   1.568       .  S
C317       C3183   1.564       .  S
C317       C3239   1.565       .  S
Zn318       O322   1.962   1_556  S
Zn318       O323   2.016       .  S
Zn318       O327   2.046       .  S
Zn318       O334   2.007   1_556  S
Zn319       O322   1.993   1_556  S
Zn319       O324   2.037       .  S
Zn319       O326   2.040       .  S
Zn319       O330   2.049   1_556  S
Zn320       O322   1.943   1_556  S
Zn320       O325   1.997       .  S
Zn320       O328   1.990       .  S
Zn320       O331   2.030   1_556  S
Zn321       O322   1.957       .  S
Zn321       O329   2.030       .  S
Zn321       O332   1.999       .  S
Zn321       O333   2.010       .  S
O323        C335   1.274       .  A
O324        C336   1.275       .  A
O325        C337   1.273       .  A
O326        C335   1.274       .  A
O327        C337   1.275       .  A
O328        C336   1.271       .  A
O329        C338   1.273       .  A
O330        C339   1.277       .  A
O331        C338   1.272       .  A
O332        C339   1.273       .  A
O333        C340   1.272       .  A
O334        C340   1.273       .  A
C335       C2147   1.478       .  S
C336       C2032   1.468       .  S
C337       C2091   1.486       .  S
C338       C2172   1.479       .  S
C339       C2203   1.486       .  S
C340       C2004   1.466       .  S
Zn341       O345   1.888       .  S
Zn341       O346   1.965       .  S
Zn341       O350   1.973       .  S
Zn341       O357   1.979       .  S
Zn342       O345   1.943       .  S
Zn342       O347   2.021       .  S
Zn342       O349   2.064       .  S
Zn342       O353   2.074       .  S
Zn343       O345   1.913       .  S
Zn343       O348   2.037       .  S
Zn343       O351   2.013       .  S
Zn343       O354   2.007       .  S
Zn344       O345   1.922       .  S
Zn344       O352   2.036       .  S
Zn344       O355   1.988       .  S
Zn344       O356   2.053       .  S
O346        C358   1.269       .  A
O347        C359   1.276       .  A
O348        C360   1.275       .  A
O349        C358   1.280       .  A
O350        C360   1.267       .  A
O351        C359   1.279       .  A
O352        C361   1.277       .  A
O353        C362   1.283       .  A
O354        C361   1.274       .  A
O355        C362   1.270       .  A
O356        C363   1.278       .  A
O357        C363   1.269       .  A
C358       C1948   1.466       .  S
C359       C2371   1.491       .  S
C360       C2074   1.463       .  S
C361       C1976   1.483       .  S
C362       C1965   1.500       .  S
C363       C2133   1.470       .  S
C364       C1923   1.570       .  S
C364       C1934   1.560       .  S
C364       C2721   1.560       .  S
C364       C3012   1.568       .  S
C365       C1881   1.577       .  S
C365       C1892   1.583       .  S
C365       C1906   1.567       .  S
C365       C2483   1.572       .  S
C366       C1850   1.577       .  S
C366       C1864   1.570       .  S
C366       C1979   1.572       .  S
C366       C3435   1.575       .  S
C367       C1825   1.567       .  S
C367       C1836   1.562       .  S
C367       C3225   1.585       .  S
C367       C3463   1.579       .  S
C368       C1808   1.583       .  S
C368       C2455   1.566       .  S
C368       C3043   1.585       .  S
C368       C3152   1.572       .  S
C369       C1783   1.566       .  S
C369       C1794   1.575       .  S
C369       C1962   1.570       .  S
C369       C3054   1.565       .  S
Zn370       O374   1.995       .  S
Zn370       O375   2.028       .  S
Zn370       O379   2.047       .  S
Zn370       O386   2.029       .  S
Zn371       O374   1.955       .  S
Zn371       O376   2.051       .  S
Zn371       O378   2.005       .  S
Zn371       O382   2.037       .  S
Zn372       O374   1.963       .  S
Zn372       O377   2.011       .  S
Zn372       O380   2.031       .  S
Zn372       O383   2.007       .  S
Zn373       O374   1.962       .  S
Zn373       O381   2.022       .  S
Zn373       O384   2.058       .  S
Zn373       O385   2.013       .  S
O375        C387   1.274       .  A
O376        C388   1.278       .  A
O377        C389   1.272       .  A
O378        C387   1.273       .  A
O379        C389   1.275       .  A
O380        C388   1.275       .  A
O381        C390   1.275       .  A
O382        C391   1.276       .  A
O383        C390   1.271       .  A
O384        C391   1.277       .  A
O385        C392   1.273       .  A
O386        C392   1.273       .  A
C387       C1797   1.473       .  S
C388       C1895   1.497       .  S
C389       C1811   1.478       .  S
C390       C1937   1.470       .  S
C391       C1853   1.486       .  S
C392       C1839   1.475       .  S
Zn393       O397   1.886       .  S
Zn393       O398   1.996       .  S
Zn393       O402   1.986       .  S
Zn393       O409   1.972       .  S
Zn394       O397   1.901       .  S
Zn394       O399   2.028       .  S
Zn394       O401   2.036       .  S
Zn394       O405   1.969       .  S
Zn395       O397   1.931       .  S
Zn395       O400   2.059       .  S
Zn395       O403   2.030       .  S
Zn395       O406   2.080       .  S
Zn396       O397   1.924       .  S
Zn396       O404   1.995       .  S
Zn396       O407   2.066       .  S
Zn396       O408   2.071       .  S
O398        C410   1.269       .  A
O399        C411   1.279       .  A
O400        C412   1.282       .  A
O401        C410   1.275       .  A
O402        C412   1.272       .  A
O403        C411   1.278       .  A
O404        C413   1.274       .  A
O405        C414   1.272       .  A
O406        C413   1.282       .  A
O407        C414   1.283       .  A
O408        C415   1.283       .  A
O409        C415   1.271       .  A
C410       C1752   1.480       .  S
C411       C1867   1.484       .  S
C412       C1738   1.477       .  S
C413       C2021   1.503       .  S
C414       C2063   1.488       .  S
C415       C1766   1.486       .  S
Zn416       O420   1.943   1_565  S
Zn416       O421   2.018   1_565  S
Zn416       O425   2.093       .  S
Zn416       O432   2.046       .  S
Zn417       O420   1.902       .  S
Zn417       O422   1.979       .  S
Zn417       O424   2.003       .  S
Zn417       O428   2.038       .  S
Zn418       O420   1.916       .  S
Zn418       O423   2.007   1_545  S
Zn418       O426   2.066       .  S
Zn418       O429   2.049   1_545  S
Zn419       O420   1.888       .  S
Zn419       O427   1.953   1_545  S
Zn419       O430   1.991       .  S
Zn419       O431   1.965   1_545  S
O421        C433   1.276       .  A
O422        C434   1.272       .  A
O423        C435   1.276       .  A
O424        C433   1.277       .  A
O425        C435   1.283       .  A
O426        C434   1.281       .  A
O427        C436   1.267       .  A
O428        C437   1.275       .  A
O429        C436   1.282       .  A
O430        C437   1.269       .  A
O431        C438   1.270       .  A
O432        C438   1.281       .  A
C433       C2606   1.463       .  S
C434       C1724   1.497       .  S
C435       C1696   1.510       .  S
C436       C1710   1.483       .  S
C437       C1685   1.483       .  S
C438       C1668   1.484       .  S
Zn439       O443   1.922       .  S
Zn439       O444   2.004       .  S
Zn439       O448   2.007       .  S
Zn439       O455   2.029   1_554  S
Zn440       O443   1.934       .  S
Zn440       O445   2.001       .  S
Zn440       O447   2.026       .  S
Zn440       O451   2.026   1_554  S
Zn441       O443   1.954       .  S
Zn441       O446   2.028       .  S
Zn441       O449   2.056       .  S
Zn441       O452   2.015   1_554  S
Zn442       O443   1.920   1_556  S
Zn442       O450   2.006       .  S
Zn442       O453   1.994       .  S
Zn442       O454   2.024       .  S
O444        C456   1.273       .  A
O445        C457   1.272       .  A
O446        C458   1.276       .  A
O447        C456   1.276       .  A
O448        C458   1.274       .  A
O449        C457   1.278       .  A
O450        C459   1.277       .  A
O451        C460   1.275       .  A
O452        C459   1.274       .  A
O453        C460   1.273       .  A
O454        C461   1.275       .  A
O455        C461   1.274       .  A
C456       C1654   1.466       .  S
C457       C1615   1.475       .  S
C458       C1601   1.473       .  S
C459       C2102   1.490       .  S
C460       C1643   1.484       .  S
C461       C1629   1.489       .  S
C462       C1570   1.573       .  S
C462       C1584   1.565       .  S
C462       C1640   1.571       .  S
C462       C1755   1.563       .  S
C463       C1542   1.569       .  S
C463       C1556   1.558       .  S
C463       C1769   1.567       .  S
C463       C3323   1.559       .  S
C464       C1514   1.569       .  S
C464       C1528   1.554       .  S
C464       C1612   1.575       .  S
C464       C1713   1.560       .  S
C465       C1486   1.566       .  S
C465       C1503   1.558       .  S
C465       C1682   1.570       .  S
C465       C3211   1.567       .  S
C466       C1430   1.588       .  S
C466       C1444   1.574       .  S
C466       C1461   1.562       .  S
C466       C1475   1.552       .  S
C467       C1402   1.585       .  S
C467       C1416   1.572       .  S
C467       C2819   1.562       .  S
C467       C3169   1.563       .  S
Zn468       O472   1.928   1_566  S
Zn468       O473   1.983       .  S
Zn468       O477   1.983       .  S
Zn468       O484   2.006   1_556  S
Zn469       O472   1.941       .  S
Zn469       O474   1.954   1_554  S
Zn469       O476   2.014   1_544  S
Zn469       O480   1.993       .  S
Zn470       O472   1.997   1_556  S
Zn470       O475   2.084       .  S
Zn470       O478   2.062       .  S
Zn470       O481   2.056   1_556  S
Zn471       O472   1.942       .  S
Zn471       O479   1.984       .  S
Zn471       O482   2.027       .  S
Zn471       O483   1.997   1_545  S
O473        C485   1.272       .  A
O474        C486   1.266       .  A
O475        C487   1.280   1_545  A
O476        C485   1.269       .  A
O477        C487   1.269       .  A
O478        C486   1.280       .  A
O479        C488   1.271       .  A
O480        C489   1.269       .  A
O481        C488   1.278       .  A
O482        C489   1.274       .  A
O483        C490   1.270       .  A
O484        C490   1.271       .  A
C485       C1559   1.471       .  S
C486       C1458   1.486       .  S
C487       C1573   1.499       .  S
C488       C1489   1.477       .  S
C489       C1419   1.484       .  S
C490       C1517   1.461       .  S
Zn491       O495   1.892   1_655  S
Zn491       O496   1.966       .  S
Zn491       O500   1.963       .  S
Zn491       O507   1.995   1_655  S
Zn492       O495   1.937   1_655  S
Zn492       O497   2.056       .  S
Zn492       O499   2.038       .  S
Zn492       O503   2.026   1_655  S
Zn493       O495   1.936   1_655  S
Zn493       O498   2.090       .  S
Zn493       O501   2.008       .  S
Zn493       O504   2.078   1_655  S
Zn494       O495   1.916       .  S
Zn494       O502   1.949       .  S
Zn494       O505   2.007       .  S
Zn494       O506   2.027       .  S
O496        C508   1.270       .  A
O497        C509   1.278       .  A
O498        C510   1.284       .  A
O499        C508   1.278       .  A
O500        C510   1.269       .  A
O501        C509   1.274       .  A
O502        C511   1.266       .  A
O503        C512   1.277       .  A
O504        C511   1.285       .  A
O505        C512   1.276       .  A
O506        C513   1.273       .  A
O507        C513   1.270       .  A
C508       C2704   1.468       .  S
C509       C1363   1.476       .  S
C510       C1374   1.491       .  S
C511       C1388   1.486       .  S
C512       C2245   1.484       .  S
C513       C1346   1.478       .  S
Zn514       O518   1.901       .  S
Zn514       O519   2.019       .  S
Zn514       O523   1.961       .  S
Zn514       O530   2.007       .  S
Zn515       O518   1.905   1_554  S
Zn515       O520   1.985       .  S
Zn515       O522   2.019   1_554  S
Zn515       O526   2.002       .  S
Zn516       O518   1.933   1_554  S
Zn516       O521   2.083   1_554  S
Zn516       O524   2.068       .  S
Zn516       O527   2.014       .  S
Zn517       O518   1.937   1_554  S
Zn517       O525   2.074       .  S
Zn517       O528   2.033       .  S
Zn517       O529   2.038   1_554  S
O519        C531   1.273       .  A
O520        C532   1.271       .  A
O521        C533   1.283       .  A
O522        C531   1.273       .  A
O523        C533   1.270       .  A
O524        C532   1.282       .  A
O525        C534   1.281       .  A
O526        C535   1.274       .  A
O527        C534   1.274       .  A
O528        C535   1.278       .  A
O529        C536   1.278       .  A
O530        C536   1.277       .  A
C531       C1447   1.484       .  S
C532       C1405   1.473       .  S
C533       C1332   1.494       .  S
C534       C1321   1.489       .  S
C535       C2217   1.467       .  S
C536       C1307   1.475       .  S
Zn537       O541   1.898       .  S
Zn537       O542   2.020   1_545  S
Zn537       O546   1.995       .  S
Zn537       O553   1.973       .  S
Zn538       O541   1.919   1_565  S
Zn538       O543   2.029       .  S
Zn538       O545   2.055       .  S
Zn538       O549   2.002       .  S
Zn539       O541   1.935       .  S
Zn539       O544   2.036       .  S
Zn539       O547   2.010   1_545  S
Zn539       O550   2.062       .  S
Zn540       O541   1.927       .  S
Zn540       O548   1.990       .  S
Zn540       O551   2.037   1_545  S
Zn540       O552   2.035       .  S
O542        C554   1.274       .  A
O543        C555   1.280       .  A
O544        C556   1.278       .  A
O545        C554   1.277       .  A
O546        C556   1.275       .  A
O547        C555   1.276       .  A
O548        C557   1.270       .  A
O549        C558   1.273       .  A
O550        C557   1.279       .  A
O551        C558   1.278       .  A
O552        C559   1.279       .  A
O553        C559   1.267       .  A
C554       C2508   1.484       .  S
C555       C1587   1.478       .  S
C556       C1262   1.475       .  S
C557       C1279   1.479       .  S
C558       C1290   1.468       .  S
C559       C2553   1.484       .  S
C560       C1220   1.567       .  S
C560       C1237   1.580       .  S
C560       C1248   1.565       .  S
C560       C1276   1.575       .  S
C561       C1209   1.562       .  S
C561       C1349   1.566       .  S
C561       C1657   1.577       .  S
C561       C1671   1.567       .  S
C562       C1195   1.563       .  S
C562       C1318   1.582       .  S
C562       C2872   1.582       .  S
C562       C2903   1.575       .  S
C563       C1181   1.587       .  S
C563       C1377   1.581       .  S
C563       C2847   1.573       .  S
C563       C3309   1.566       .  S
C564       C1164   1.567       .  S
C564       C1293   1.568       .  S
C564       C1626   1.571       .  S
C564       C2399   1.562       .  S
C565       C1125   1.566       .  S
C565       C1139   1.574       .  S
C565       C1150   1.562       .  S
C565       C1335   1.574       .  S
Zn566       O570   1.957   1_455  S
Zn566       O571   2.002       .  S
Zn566       O575   2.028   1_455  S
Zn566       O582   2.035   1_545  S
Zn567       O570   2.005   1_454  S
Zn567       O572   2.064   1_455  S
Zn567       O574   2.071   1_554  S
Zn567       O578   2.090       .  S
Zn568       O570   1.939   1_554  S
Zn568       O573   1.992   1_554  S
Zn568       O576   1.968       .  S
Zn568       O579   2.040   1_545  S
Zn569       O570   1.919   1_464  S
Zn569       O577   1.980   1_455  S
Zn569       O580   1.949       .  S
Zn569       O581   1.982   1_554  S
O571        C583   1.274       .  A
O572        C584   1.278       .  A
O573        C585   1.271       .  A
O574        C583   1.280       .  A
O575        C585   1.274       .  A
O576        C584   1.270       .  A
O577        C586   1.266       .  A
O578        C587   1.281   1_545  A
O579        C586   1.273       .  A
O580        C587   1.267       .  A
O581        C588   1.268       .  A
O582        C588   1.275       .  A
C583       C1234   1.487       .  S
C584       C1192   1.495       .  S
C585       C1136   1.479       .  S
C586       C1178   1.490       .  S
C587       C1206   1.496       .  S
C588       C1167   1.478       .  S
Zn589       O593   1.900   1_556  S
Zn589       O594   2.008   1_556  S
Zn589       O598   2.002       .  S
Zn589       O605   1.985       .  S
Zn590       O593   1.906       .  S
Zn590       O595   1.991       .  S
Zn590       O597   2.015       .  S
Zn590       O601   1.976       .  S
Zn591       O593   1.943   1_556  S
Zn591       O596   2.043       .  S
Zn591       O599   2.027   1_556  S
Zn591       O602   2.078       .  S
Zn592       O593   1.916   1_556  S
Zn592       O600   1.991       .  S
Zn592       O603   2.053   1_556  S
Zn592       O604   2.041       .  S
O594        C606   1.272       .  A
O595        C607   1.274       .  A
O596        C608   1.279       .  A
O597        C606   1.272       .  A
O598        C608   1.274       .  A
O599        C607   1.278       .  A
O600        C609   1.274       .  A
O601        C610   1.271       .  A
O602        C609   1.281       .  A
O603        C610   1.279       .  A
O604        C611   1.281       .  A
O605        C611   1.271       .  A
C606       C1094   1.486       .  S
C607       C1500   1.479       .  S
C608       C1251   1.471       .  S
C609       C2119   1.498       .  S
C610       C1993   1.482       .  S
C611       C1108   1.488       .  S
Zn612       O616   1.946       .  S
Zn612       O617   1.998       .  S
Zn612       O621   2.041       .  S
Zn612       O628   2.051       .  S
Zn613       O616   1.964       .  S
Zn613       O618   2.034       .  S
Zn613       O620   2.078       .  S
Zn613       O624   2.041       .  S
Zn614       O616   1.929       .  S
Zn614       O619   1.984       .  S
Zn614       O622   1.996       .  S
Zn614       O625   2.035       .  S
Zn615       O616   1.910       .  S
Zn615       O623   1.997       .  S
Zn615       O626   1.981       .  S
Zn615       O627   1.982       .  S
O617        C629   1.272       .  A
O618        C630   1.276       .  A
O619        C631   1.271       .  A
O620        C629   1.281       .  A
O621        C631   1.278       .  A
O622        C630   1.273       .  A
O623        C632   1.271       .  A
O624        C633   1.278       .  A
O625        C632   1.273       .  A
O626        C633   1.272       .  A
O627        C634   1.272       .  A
O628        C634   1.279       .  A
C629       C2315   1.486       .  S
C630       C1909   1.467       .  S
C631       C2259   1.481       .  S
C632       C1066   1.491       .  S
C633       C2049   1.473       .  S
C634       C1083   1.484       .  S
Zn635       O639   1.950   1_655  S
Zn635       O640   2.076       .  S
Zn635       O644   2.010   1_655  S
Zn635       O651   2.058       .  S
Zn636       O639   1.926   1_655  S
Zn636       O641   2.030   1_655  S
Zn636       O643   1.970       .  S
Zn636       O647   2.026       .  S
Zn637       O639   1.920       .  S
Zn637       O642   2.000       .  S
Zn637       O645   1.998       .  S
Zn637       O648   2.035       .  S
Zn638       O639   1.905   1_655  S
Zn638       O646   1.999   1_655  S
Zn638       O649   2.003       .  S
Zn638       O650   1.989       .  S
O640        C652   1.281       .  A
O641        C653   1.275       .  A
O642        C654   1.275       .  A
O643        C652   1.268       .  A
O644        C654   1.276       .  A
O645        C653   1.271       .  A
O646        C655   1.274       .  A
O647        C656   1.275       .  A
O648        C655   1.274       .  A
O649        C656   1.272       .  A
O650        C657   1.273       .  A
O651        C657   1.280       .  A
C652       C1122   1.498       .  S
C653       C1223   1.467       .  S
C654       C2578   1.485       .  S
C655       C1038   1.494       .  S
C656       C1052   1.490       .  S
C657       C2284   1.471       .  S
C658       C1024   1.574       .  S
C658       C1055   1.567       .  S
C658       C1069   1.562       .  S
C658       C1304   1.570       .  S
C659       C1013   1.564       .  S
C659       C1041   1.571       .  S
C659       C1111   1.574       .  S
C659       C1951   1.566       .  S
C660        C996   1.572       .  S
C660       C1080   1.573       .  S
C660       C2382   1.564       .  S
C660       C3351   1.562       .  S
C661        C985   1.574       .  S
C661       C1097   1.590       .  S
C661       C2889   1.570       .  S
C661       C3295   1.569       .  S
C662        C968   1.576       .  S
C662       C1360   1.572       .  S
C662       C2970   1.571       .  S
C662       C3379   1.565       .  S
C663        C957   1.576       .  S
C663       C1391   1.574       .  S
C663       C1598   1.566       .  S
C663       C3253   1.586       .  S
Zn664       O668   1.955   1_556  S
Zn664       O669   1.995       .  S
Zn664       O673   2.042   1_556  S
Zn664       O680   2.010       .  S
Zn665       O668   2.002   1_456  S
Zn665       O670   2.049   1_556  S
Zn665       O672   2.042       .  S
Zn665       O676   2.056       .  S
Zn666       O668   1.937   1_455  S
Zn666       O671   2.023   1_455  S
Zn666       O674   1.998       .  S
Zn666       O677   1.982       .  S
Zn667       O668   1.959   1_456  S
Zn667       O675   2.031   1_556  S
Zn667       O678   2.008       .  S
Zn667       O679   2.024   1_455  S
O669        C681   1.274       .  A
O670        C682   1.276       .  A
O671        C683   1.272       .  A
O672        C681   1.276   1_455  A
O673        C683   1.274       .  A
O674        C682   1.272       .  A
O675        C684   1.273       .  A
O676        C685   1.277       .  A
O677        C684   1.272       .  A
O678        C685   1.273       .  A
O679        C686   1.274       .  A
O680        C686   1.272       .  A
C681        C999   1.481       .  S
C682        C954   1.478       .  S
C683        C971   1.479       .  S
C684        C982   1.482       .  S
C685       C1010   1.499       .  S
C686       C1027   1.470       .  S
Zn687       O691   1.937       .  S
Zn687       O692   2.041       .  S
Zn687       O696   2.047       .  S
Zn687       O703   1.967       .  S
Zn688       O691   1.897       .  S
Zn688       O693   2.019       .  S
Zn688       O695   1.984       .  S
Zn688       O699   1.998       .  S
Zn689       O691   1.916       .  S
Zn689       O694   1.992       .  S
Zn689       O697   2.019       .  S
Zn689       O700   1.979       .  S
Zn690       O691   1.954       .  S
Zn690       O698   2.031       .  S
Zn690       O701   2.070       .  S
Zn690       O702   2.091       .  S
O692        C704   1.278       .  A
O693        C705   1.274       .  A
O694        C706   1.270       .  A
O695        C704   1.270       .  A
O696        C706   1.278       .  A
O697        C705   1.272       .  A
O698        C707   1.278       .  A
O699        C708   1.274       .  A
O700        C707   1.273       .  A
O701        C708   1.281       .  A
O702        C709   1.283       .  A
O703        C709   1.268       .  A
C704       C1920   1.467       .  S
C705       C1822   1.473       .  S
C706        C940   1.489       .  S
C707       C1531   1.462       .  S
C708       C2189   1.483       .  S
C709        C929   1.482       .  S
Zn710       O714   1.959       .  S
Zn710       O715   1.998       .  S
Zn710       O719   2.084       .  S
Zn710       O726   2.072       .  S
Zn711       O714   1.922       .  S
Zn711       O716   2.010       .  S
Zn711       O718   2.005       .  S
Zn711       O722   2.050       .  S
Zn712       O714   1.929       .  S
Zn712       O717   1.984       .  S
Zn712       O720   2.043       .  S
Zn712       O723   2.034       .  S
Zn713       O714   1.894       .  S
Zn713       O721   1.965       .  S
Zn713       O724   2.003       .  S
Zn713       O725   1.990       .  S
O715        C727   1.275       .  A
O716        C728   1.275       .  A
O717        C729   1.272       .  A
O718        C727   1.277       .  A
O719        C729   1.282       .  A
O720        C728   1.278       .  A
O721        C730   1.270       .  A
O722        C731   1.276       .  A
O723        C730   1.277       .  A
O724        C731   1.271       .  A
O725        C732   1.273       .  A
O726        C732   1.280       .  A
C727       C1472   1.467       .  S
C728        C915   1.489       .  S
C729        C898   1.501       .  S
C730       C1780   1.479       .  S
C731       C1878   1.479       .  S
C732       C2161   1.481       .  S
Zn733       O737   1.945       .  S
Zn733       O738   2.049   1_545  S
Zn733       O742   2.056       .  S
Zn733       O749   2.076       .  S
Zn734       O737   1.910   1_565  S
Zn734       O739   2.017       .  S
Zn734       O741   2.007       .  S
Zn734       O745   1.985       .  S
Zn735       O737   1.908       .  S
Zn735       O740   2.000       .  S
Zn735       O743   2.013   1_545  S
Zn735       O746   1.999       .  S
Zn736       O737   1.936       .  S
Zn736       O744   2.053       .  S
Zn736       O747   2.059   1_545  S
Zn736       O748   1.990       .  S
O738        C750   1.280       .  A
O739        C751   1.273       .  A
O740        C752   1.274       .  A
O741        C750   1.277       .  A
O742        C752   1.280       .  A
O743        C751   1.272       .  A
O744        C753   1.279       .  A
O745        C754   1.271       .  A
O746        C753   1.272       .  A
O747        C754   1.280       .  A
O748        C755   1.273       .  A
O749        C755   1.283       .  A
C750       C2651   1.488       .  S
C751       C1545   1.469       .  S
C752       C1153   1.478       .  S
C753       C1433   1.476       .  S
C754        C884   1.485       .  S
C755        C870   1.482       .  S
C756        C856   1.568       .  S
C756        C901   1.577       .  S
C756       C1265   1.565       .  S
C756       C3113   1.572       .  S
C757        C842   1.596       .  S
C757        C887   1.578       .  S
C757       C1741   1.570       .  S
C757       C2746   1.564       .  S
C758        C828   1.566       .  S
C758        C873   1.574       .  S
C758        C912   1.578       .  S
C758       C2441   1.557       .  S
C759        C814   1.571       .  S
C759        C943   1.576       .  S
C759       C1699   1.582       .  S
C759       C3393   1.583       .  S
C760        C800   1.577       .  S
C760        C926   1.578       .  S
C760       C2791   1.562       .  S
C760       C2802   1.571       .  S
C761        C786   1.572       .  S
C761       C1727   1.575       .  S
C761       C3082   1.572       .  S
C761       C3141   1.562       .  S
Zn762       O766   1.955   1_565  S
Zn762       O767   2.030       .  S
Zn762       O771   2.010   1_565  S
Zn762       O778   1.991       .  S
Zn763       O766   1.939   1_565  S
Zn763       O768   2.016   1_565  S
Zn763       O770   1.986       .  S
Zn763       O774   2.003       .  S
Zn764       O766   1.961       .  S
Zn764       O769   2.051       .  S
Zn764       O772   2.023       .  S
Zn764       O775   1.978       .  S
Zn765       O766   2.002   1_565  S
Zn765       O773   2.060   1_565  S
Zn765       O776   2.070       .  S
Zn765       O777   2.068       .  S
O767        C779   1.273       .  A
O768        C780   1.271       .  A
O769        C781   1.275       .  A
O770        C779   1.273       .  A
O771        C781   1.273       .  A
O772        C780   1.273       .  A
O773        C782   1.278       .  A
O774        C783   1.272       .  A
O775        C782   1.270       .  A
O776        C783   1.278       .  A
O777        C784   1.278       .  A
O778        C784   1.272       .  A
C779        C803   1.483       .  S
C780        C831   1.473       .  S
C781        C789   1.493       .  S
C782        C859   1.472       .  S
C783        C845   1.485       .  S
C784        C817   1.479       .  S
C785        C786   1.415       .  A
C785        C790   1.396       .  A
C785        H792   1.079       .  S
C786        C787   1.424       .  A
C787        C788   1.415       .  A
C787        N794   1.430       .  S
C788        C789   1.405       .  A
C788        H793   1.083       .  S
C789        C790   1.408       .  A
C790        N791   1.432       .  S
N791        H795   1.046       .  S
N791        H796   1.046       .  S
N794        H797   1.045       .  S
N794        H798   1.046       .  S
C799        C800   1.419       .  A
C799        C804   1.415       .  A
C799        H806   1.083       .  S
C800        C801   1.437       .  A
C801        C802   1.389       .  A
C801        N808   1.434       .  S
C802        C803   1.392       .  A
C802        H807   1.084       .  S
C803        C804   1.410       .  A
C804        N805   1.437       .  S
N805        H809   1.046       .  S
N805        H810   1.046   1_565  S
N808        H811   1.046       .  S
N808        H812   1.046       .  S
C813        C814   1.415       .  A
C813        C818   1.394       .  A
C813        H820   1.079       .  S
C814        C815   1.431       .  A
C815        C816   1.411       .  A
C815        N822   1.431       .  S
C816        C817   1.398       .  A
C816        H821   1.084       .  S
C817        C818   1.408       .  A
C818        N819   1.432       .  S
N819        H823   1.042       .  S
N819        H824   1.045       .  S
N822        H825   1.045       .  S
N822        H826   1.045       .  S
C827        C828   1.416       .  A
C827        C832   1.396       .  A
C827        H834   1.083       .  S
C828        C829   1.431       .  A
C829        C830   1.409       .  A
C829        N836   1.432       .  S
C830        C831   1.397       .  A
C830        H835   1.084       .  S
C831        C832   1.407       .  A
C832        N833   1.433       .  S
N833        H837   1.046       .  S
N833        H838   1.045       .  S
N836        H839   1.045       .  S
N836        H840   1.046       .  S
C841        C842   1.424       .  A
C841        C846   1.396       .  A
C841        H848   1.078       .  S
C842        C843   1.439       .  A
C843        C844   1.413       .  A
C843        N850   1.432       .  S
C844        C845   1.401       .  A
C844        H849   1.084       .  S
C845        C846   1.409       .  A
C846        N847   1.442       .  S
N847        H851   1.046       .  S
N847        H852   1.043       .  S
N850        H853   1.040       .  S
N850        H854   1.043       .  S
C855        C856   1.418       .  A
C855        C860   1.397       .  A
C855        H862   1.076       .  S
C856        C857   1.425       .  A
C857        C858   1.411       .  A
C857        N864   1.433       .  S
C858        C859   1.400       .  A
C858        H863   1.084       .  S
C859        C860   1.403       .  A
C860        N861   1.440       .  S
N861        H865   1.046       .  S
N861        H866   1.045       .  S
N864        H867   1.046       .  S
N864        H868   1.045       .  S
C869        C870   1.396       .  A
C869        C874   1.409       .  A
C869        H876   1.084       .  S
C870        C871   1.409       .  A
C871        C872   1.405       .  A
C871        N878   1.439       .  S
C872        C873   1.416       .  A
C872        H877   1.079       .  S
C873        C874   1.428       .  A
C874        N875   1.430       .  S
N875        H879   1.046       .  S
N875        H880   1.046       .  S
N878        H881   1.045       .  S
N878        H882   1.046       .  S
C883        C884   1.402       .  A
C883        C888   1.404       .  A
C883        H890   1.084       .  S
C884        C885   1.402       .  A
C885        C886   1.403       .  A
C885        N892   1.432       .  S
C886        C887   1.423       .  A
C886        H891   1.083       .  S
C887        C888   1.431       .  A
C888        N889   1.431       .  S
N889        H893   1.046       .  S
N889        H894   1.046       .  S
N892        H895   1.046       .  S
N892        H896   1.046       .  S
C897        C898   1.406       .  A
C897        C902   1.398       .  A
C897        H904   1.083       .  S
C898        C899   1.412       .  A
C899        C900   1.417       .  A
C899        N906   1.437       .  S
C900        C901   1.421       .  A
C900        H905   1.079       .  S
C901        C902   1.421       .  A
C902        N903   1.433       .  S
N903        H907   1.046       .  S
N903        H908   1.046       .  S
N906        H909   1.045       .  S
N906        H910   1.046       .  S
C911        C912   1.420       .  A
C911        C916   1.405       .  A
C911        H918   1.080       .  S
C912        C913   1.426       .  A
C913        C914   1.405       .  A
C913        N920   1.432       .  S
C914        C915   1.402       .  A
C914        H919   1.084       .  S
C915        C916   1.406       .  A
C916        N917   1.432       .  S
N917        H921   1.046       .  S
N917        H922   1.046       .  S
N920        H923   1.046       .  S
N920        H924   1.046       .  S
C925        C926   1.417       .  A
C925        C930   1.397       .  A
C925        H932   1.075       .  S
C926        C927   1.431       .  A
C927        C928   1.411       .  A
C927        N934   1.433       .  S
C928        C929   1.398       .  A
C928        H933   1.084       .  S
C929        C930   1.413       .  A
C930        N931   1.435       .  S
N931        H935   1.044       .  S
N931        H936   1.045       .  S
N934        H937   1.045       .  S
N934        H938   1.046       .  S
C939        C940   1.402       .  A
C939        C944   1.408       .  A
C939        H946   1.084       .  S
C940        C941   1.415       .  A
C941        C942   1.396       .  A
C941        N948   1.433       .  S
C942        C943   1.417       .  A
C942        H947   1.084       .  S
C943        C944   1.430       .  A
C944        N945   1.432       .  S
N945        H949   1.046       .  S
N945        H950   1.046       .  S
N948        H951   1.046       .  S
N948        H952   1.045       .  S
C953        C954   1.390       .  A
C953        C958   1.395       .  A
C953        H960   1.086       .  S
C954        C955   1.413       .  A
C955        C956   1.411       .  A
C955        N962   1.438       .  S
C956        C957   1.420       .  A
C956        H961   1.084       .  S
C957        C958   1.439       .  A
C958        N959   1.432       .  S
N959        H963   1.046       .  S
N959        H964   1.046       .  S
N962        H965   1.043       .  S
N962        H966   1.046       .  S
C967        C968   1.421       .  A
C967        C972   1.415       .  A
C967        H974   1.080       .  S
C968        C969   1.428       .  A
C969        C970   1.396       .  A
C969        N976   1.431       .  S
C970        C971   1.391       .  A
C970        H975   1.085       .  S
C971        C972   1.415       .  A
C972        N973   1.437       .  S
N973        H977   1.045       .  S
N973        H978   1.044       .  S
N976        H979   1.046       .  S
N976        H980   1.046       .  S
C981        C982   1.396       .  A
C981        C986   1.393       .  A
C981        H988   1.084       .  S
C982        C983   1.408       .  A
C983        C984   1.410       .  A
C983        N990   1.437       .  S
C984        C985   1.423       .  A
C984        H989   1.083       .  S
C985        C986   1.434       .  A
C986        N987   1.432       .  S
N987        H991   1.046       .  S
N987        H992   1.046       .  S
N990        H993   1.046   1_455  S
N990        H994   1.046       .  S
C995        C996   1.418       .  A
C995       C1000   1.405       .  A
C995       H1002   1.083       .  S
C996        C997   1.434       .  A
C997        C998   1.399       .  A
C997       N1004   1.432       .  S
C998        C999   1.397       .  A
C998       H1003   1.085       .  S
C999       C1000   1.415       .  A
C1000      N1001   1.439       .  S
N1001      H1005   1.045       .  S
N1001      H1006   1.040       .  S
N1004      H1007   1.046       .  S
N1004      H1008   1.046       .  S
C1009      C1010   1.410       .  A
C1009      C1014   1.418       .  A
C1009      H1016   1.083       .  S
C1010      C1011   1.410       .  A
C1011      C1012   1.393       .  A
C1011      N1018   1.434       .  S
C1012      C1013   1.415       .  A
C1012      H1017   1.083       .  S
C1013      C1014   1.426       .  A
C1014      N1015   1.431       .  S
N1015      H1019   1.045       .  S
N1015      H1020   1.045       .  S
N1018      H1021   1.046       .  S
N1018      H1022   1.046       .  S
C1023      C1024   1.421       .  A
C1023      C1028   1.406       .  A
C1023      H1030   1.079       .  S
C1024      C1025   1.438       .  A
C1025      C1026   1.393       .  A
C1025      N1032   1.432       .  S
C1026      C1027   1.391       .  A
C1026      H1031   1.085       .  S
C1027      C1028   1.409       .  A
C1028      N1029   1.438       .  S
N1029      H1033   1.046   1_556  S
N1029      H1034   1.044   1_556  S
N1032      H1035   1.039       .  S
N1032      H1036   1.041       .  S
C1037      C1038   1.403       .  A
C1037      C1042   1.398       .  A
C1037      H1044   1.084       .  S
C1038      C1039   1.417       .  A
C1039      C1040   1.404       .  A
C1039      N1046   1.432       .  S
C1040      C1041   1.417       .  A
C1040      H1045   1.083       .  S
C1041      C1042   1.428       .  A
C1042      N1043   1.434       .  S
N1043      H1047   1.046       .  S
N1043      H1048   1.046       .  S
N1046      H1049   1.045       .  S
N1046      H1050   1.045       .  S
C1051      C1052   1.405       .  A
C1051      C1056   1.406       .  A
C1051      H1058   1.084       .  S
C1052      C1053   1.411       .  A
C1053      C1054   1.395       .  A
C1053      N1060   1.433       .  S
C1054      C1055   1.419       .  A
C1054      H1059   1.082       .  S
C1055      C1056   1.428       .  A
C1056      N1057   1.431       .  S
N1057      H1061   1.046       .  S
N1057      H1062   1.046       .  S
N1060      H1063   1.045       .  S
N1060      H1064   1.045       .  S
C1065      C1066   1.402       .  A
C1065      C1070   1.400       .  A
C1065      H1072   1.084       .  S
C1066      C1067   1.412       .  A
C1067      C1068   1.410       .  A
C1067      N1074   1.437       .  S
C1068      C1069   1.414       .  A
C1068      H1073   1.079       .  S
C1069      C1070   1.426       .  A
C1070      N1071   1.433       .  S
N1071      H1075   1.046       .  S
N1071      H1076   1.046       .  S
N1074      H1077   1.046       .  S
N1074      H1078   1.046       .  S
C1079      C1080   1.422       .  A
C1079      C1084   1.404       .  A
C1079      H1086   1.080       .  S
C1080      C1081   1.422       .  A
C1081      C1082   1.401       .  A
C1081      N1088   1.431       .  S
C1082      C1083   1.402       .  A
C1082      H1087   1.084       .  S
C1083      C1084   1.404       .  A
C1084      N1085   1.432       .  S
N1085      H1089   1.046       .  S
N1085      H1090   1.046       .  S
N1088      H1091   1.046       .  S
N1088      H1092   1.046       .  S
C1093      C1094   1.397       .  A
C1093      C1098   1.405       .  A
C1093      H1100   1.084       .  S
C1094      C1095   1.407       .  A
C1095      C1096   1.403       .  A
C1095      N1102   1.440       .  S
C1096      C1097   1.423       .  A
C1096      H1101   1.075       .  S
C1097      C1098   1.443       .  A
C1098      N1099   1.439       .  S
N1099      H1103   1.045       .  S
N1099      H1104   1.033       .  S
N1102      H1105   1.046       .  S
N1102      H1106   1.046       .  S
C1107      C1108   1.398       .  A
C1107      C1112   1.399       .  A
C1107      H1114   1.084       .  S
C1108      C1109   1.414       .  A
C1109      C1110   1.404       .  A
C1109      N1116   1.433       .  S
C1110      C1111   1.414       .  A
C1110      H1115   1.079       .  S
C1111      C1112   1.426       .  A
C1112      N1113   1.430       .  S
N1113      H1117   1.046       .  S
N1113      H1118   1.046       .  S
N1116      H1119   1.046       .  S
N1116      H1120   1.046       .  S
C1121      C1122   1.404       .  A
C1121      C1126   1.412       .  A
C1121      H1128   1.083       .  S
C1122      C1123   1.419       .  A
C1123      C1124   1.399       .  A
C1123      N1130   1.440       .  S
C1124      C1125   1.411       .  A
C1124      H1129   1.081       .  S
C1125      C1126   1.428       .  A
C1126      N1127   1.432       .  S
N1127      H1131   1.045       .  S
N1127      H1132   1.046       .  S
N1130      H1133   1.047       .  S
N1130      H1134   1.045       .  S
C1135      C1136   1.402       .  A
C1135      C1140   1.410       .  A
C1135      H1142   1.084       .  S
C1136      C1137   1.411       .  A
C1137      C1138   1.390       .  A
C1137      N1144   1.435       .  S
C1138      C1139   1.419       .  A
C1138      H1143   1.080       .  S
C1139      C1140   1.424       .  A
C1140      N1141   1.431       .  S
N1141      H1145   1.046       .  S
N1141      H1146   1.046       .  S
N1144      H1147   1.046       .  S
N1144      H1148   1.044       .  S
C1149      C1150   1.415       .  A
C1149      C1154   1.403       .  A
C1149      H1156   1.079       .  S
C1150      C1151   1.426       .  A
C1151      C1152   1.403       .  A
C1151      N1158   1.431       .  S
C1152      C1153   1.396       .  A
C1152      H1157   1.084       .  S
C1153      C1154   1.415       .  A
C1154      N1155   1.440       .  S
N1155      H1159   1.046       .  S
N1155      H1160   1.043       .  S
N1158      H1161   1.045       .  S
N1158      H1162   1.046       .  S
C1163      C1164   1.417       .  A
C1163      C1168   1.402       .  A
C1163      H1170   1.077       .  S
C1164      C1165   1.427       .  A
C1165      C1166   1.404       .  A
C1165      N1172   1.432       .  S
C1166      C1167   1.397       .  A
C1166      H1171   1.084       .  S
C1167      C1168   1.409       .  A
C1168      N1169   1.440       .  S
N1169      H1173   1.046       .  S
N1169      H1174   1.045       .  S
N1172      H1175   1.046       .  S
N1172      H1176   1.045       .  S
C1177      C1178   1.401       .  A
C1177      C1182   1.409       .  A
C1177      H1184   1.084       .  S
C1178      C1179   1.413       .  A
C1179      C1180   1.389       .  A
C1179      N1186   1.434       .  S
C1180      C1181   1.419       .  A
C1180      H1185   1.078       .  S
C1181      C1182   1.440       .  A
C1182      N1183   1.438       .  S
N1183      H1187   1.046       .  S
N1183      H1188   1.034       .  S
N1186      H1189   1.045       .  S
N1186      H1190   1.045       .  S
C1191      C1192   1.405       .  A
C1191      C1196   1.399       .  A
C1191      H1198   1.083       .  S
C1192      C1193   1.413       .  A
C1193      C1194   1.404       .  A
C1193      N1200   1.432       .  S
C1194      C1195   1.419       .  A
C1194      H1199   1.079       .  S
C1195      C1196   1.426       .  A
C1196      N1197   1.440       .  S
N1197      H1201   1.045       .  S
N1197      H1202   1.043       .  S
N1200      H1203   1.045   1_655  S
N1200      H1204   1.045   1_655  S
C1205      C1206   1.408       .  A
C1205      C1210   1.395       .  A
C1205      H1212   1.083       .  S
C1206      C1207   1.414       .  A
C1207      C1208   1.408       .  A
C1207      N1214   1.431   1_565  S
C1208      C1209   1.419       .  A
C1208      H1213   1.079       .  S
C1209      C1210   1.419       .  A
C1210      N1211   1.434       .  S
N1211      H1215   1.046       .  S
N1211      H1216   1.046       .  S
N1214      H1217   1.046       .  S
N1214      H1218   1.045       .  S
C1219      C1220   1.423       .  A
C1219      C1224   1.404       .  A
C1219      H1226   1.078       .  S
C1220      C1221   1.424       .  A
C1221      C1222   1.404       .  A
C1221      N1228   1.433       .  S
C1222      C1223   1.398       .  A
C1222      H1227   1.084       .  S
C1223      C1224   1.399       .  A
C1224      N1225   1.438       .  S
N1225      H1229   1.046       .  S
N1225      H1230   1.045       .  S
N1228      H1231   1.045       .  S
N1228      H1232   1.046       .  S
C1233      C1234   1.400       .  A
C1233      C1238   1.412       .  A
C1233      H1240   1.084       .  S
C1234      C1235   1.407       .  A
C1235      C1236   1.404       .  A
C1235      N1242   1.440       .  S
C1236      C1237   1.420       .  A
C1236      H1241   1.076       .  S
C1237      C1238   1.429       .  A
C1238      N1239   1.432       .  S
N1239      H1243   1.046       .  S
N1239      H1244   1.046       .  S
N1242      H1245   1.045       .  S
N1242      H1246   1.046       .  S
C1247      C1248   1.414       .  A
C1247      C1252   1.405       .  A
C1247      H1254   1.080       .  S
C1248      C1249   1.428       .  A
C1249      C1250   1.397       .  A
C1249      N1256   1.430       .  S
C1250      C1251   1.392       .  A
C1250      H1255   1.085       .  S
C1251      C1252   1.414       .  A
C1252      N1253   1.438       .  S
N1253      H1257   1.045   1_556  S
N1253      H1258   1.044   1_556  S
N1256      H1259   1.046       .  S
N1256      H1260   1.046       .  S
C1261      C1262   1.399       .  A
C1261      C1266   1.403       .  A
C1261      H1268   1.085       .  S
C1262      C1263   1.413       .  A
C1263      C1264   1.398       .  A
C1263      N1270   1.441       .  S
C1264      C1265   1.418       .  A
C1264      H1269   1.083       .  S
C1265      C1266   1.429       .  A
C1266      N1267   1.431       .  S
N1267      H1271   1.046       .  S
N1267      H1272   1.046       .  S
N1270      H1273   1.039       .  S
N1270      H1274   1.047       .  S
C1275      C1276   1.421       .  A
C1275      C1280   1.405       .  A
C1275      H1282   1.084       .  S
C1276      C1277   1.430       .  A
C1277      C1278   1.403       .  A
C1277      N1284   1.432       .  S
C1278      C1279   1.399       .  A
C1278      H1283   1.085       .  S
C1279      C1280   1.411       .  A
C1280      N1281   1.438       .  S
N1281      H1285   1.045       .  S
N1281      H1286   1.043       .  S
N1284      H1287   1.046       .  S
N1284      H1288   1.046       .  S
C1289      C1290   1.397       .  A
C1289      C1294   1.404       .  A
C1289      H1296   1.084       .  S
C1290      C1291   1.403       .  A
C1291      C1292   1.397       .  A
C1291      N1298   1.433       .  S
C1292      C1293   1.421       .  A
C1292      H1297   1.079       .  S
C1293      C1294   1.426       .  A
C1294      N1295   1.432       .  S
N1295      H1299   1.046       .  S
N1295      H1300   1.045       .  S
N1298      H1301   1.046       .  S
N1298      H1302   1.046       .  S
C1303      C1304   1.418       .  A
C1303      C1308   1.406       .  A
C1303      H1310   1.081       .  S
C1304      C1305   1.432       .  A
C1305      C1306   1.399       .  A
C1305      N1312   1.433       .  S
C1306      C1307   1.394       .  A
C1306      H1311   1.085       .  S
C1307      C1308   1.412       .  A
C1308      N1309   1.438       .  S
N1309      H1313   1.045       .  S
N1309      H1314   1.043       .  S
N1312      H1315   1.046       .  S
N1312      H1316   1.046       .  S
C1317      C1318   1.419       .  A
C1317      C1322   1.400       .  A
C1317      H1324   1.077       .  S
C1318      C1319   1.428       .  A
C1319      C1320   1.412       .  A
C1319      N1326   1.433       .  S
C1320      C1321   1.401       .  A
C1320      H1325   1.084       .  S
C1321      C1322   1.413       .  A
C1322      N1323   1.434       .  S
N1323      H1327   1.044       .  S
N1323      H1328   1.045       .  S
N1326      H1329   1.046       .  S
N1326      H1330   1.046       .  S
C1331      C1332   1.408       .  A
C1331      C1336   1.402       .  A
C1331      H1338   1.084       .  S
C1332      C1333   1.410       .  A
C1333      C1334   1.403       .  A
C1333      N1340   1.432       .  S
C1334      C1335   1.422       .  A
C1334      H1339   1.083       .  S
C1335      C1336   1.424       .  A
C1336      N1337   1.432       .  S
N1337      H1341   1.046       .  S
N1337      H1342   1.046       .  S
N1340      H1343   1.045       .  S
N1340      H1344   1.045       .  S
C1345      C1346   1.398       .  A
C1345      C1350   1.402       .  A
C1345      H1352   1.084       .  S
C1346      C1347   1.412       .  A
C1347      C1348   1.400       .  A
C1347      N1354   1.434       .  S
C1348      C1349   1.417       .  A
C1348      H1353   1.078       .  S
C1349      C1350   1.425       .  A
C1350      N1351   1.432       .  S
N1351      H1355   1.046       .  S
N1351      H1356   1.046       .  S
N1354      H1357   1.045       .  S
N1354      H1358   1.045       .  S
C1359      C1360   1.418       .  A
C1359      C1364   1.405       .  A
C1359      H1366   1.080       .  S
C1360      C1361   1.426       .  A
C1361      C1362   1.410       .  A
C1361      N1368   1.430       .  S
C1362      C1363   1.398       .  A
C1362      H1367   1.084       .  S
C1363      C1364   1.403       .  A
C1364      N1365   1.438       .  S
N1365      H1369   1.046       .  S
N1365      H1370   1.046       .  S
N1368      H1371   1.045       .  S
N1368      H1372   1.045       .  S
C1373      C1374   1.404       .  A
C1373      C1378   1.400       .  A
C1373      H1380   1.084       .  S
C1374      C1375   1.409       .  A
C1375      C1376   1.414       .  A
C1375      N1382   1.438       .  S
C1376      C1377   1.424       .  A
C1376      H1381   1.078       .  S
C1377      C1378   1.422       .  A
C1378      N1379   1.433       .  S
N1379      H1383   1.046       .  S
N1379      H1384   1.046       .  S
N1382      H1385   1.045       .  S
N1382      H1386   1.046       .  S
C1387      C1388   1.395       .  A
C1387      C1392   1.400       .  A
C1387      H1394   1.084       .  S
C1388      C1389   1.420       .  A
C1389      C1390   1.394       .  A
C1389      N1396   1.434       .  S
C1390      C1391   1.411       .  A
C1390      H1395   1.079       .  S
C1391      C1392   1.440       .  A
C1392      N1393   1.430       .  S
N1393      H1397   1.042       .  S
N1393      H1398   1.041       .  S
N1396      H1399   1.045       .  S
N1396      H1400   1.045       .  S
C1401      C1402   1.423       .  A
C1401      C1406   1.403       .  A
C1401      H1408   1.078       .  S
C1402      C1403   1.435       .  A
C1403      C1404   1.399       .  A
C1403      N1410   1.432       .  S
C1404      C1405   1.397       .  A
C1404      H1409   1.085       .  S
C1405      C1406   1.408       .  A
C1406      N1407   1.439       .  S
N1407      H1411   1.046       .  S
N1407      H1412   1.043       .  S
N1410      H1413   1.040       .  S
N1410      H1414   1.043       .  S
C1415      C1416   1.417       .  A
C1415      C1420   1.396       .  A
C1415      H1422   1.083       .  S
C1416      C1417   1.429       .  A
C1417      C1418   1.403       .  A
C1417      N1424   1.432       .  S
C1418      C1419   1.401       .  A
C1418      H1423   1.084       .  S
C1419      C1420   1.414       .  A
C1420      N1421   1.433       .  S
N1421      H1425   1.043       .  S
N1421      H1426   1.046       .  S
N1424      H1427   1.046       .  S
N1424      H1428   1.046       .  S
C1429      C1430   1.426       .  A
C1429      C1434   1.402       .  A
C1429      H1436   1.079       .  S
C1430      C1431   1.434       .  A
C1431      C1432   1.402       .  A
C1431      N1438   1.433       .  S
C1432      C1433   1.398       .  A
C1432      H1437   1.084       .  S
C1433      C1434   1.408       .  A
C1434      N1435   1.440       .  S
N1435      H1439   1.045       .  S
N1435      H1440   1.043       .  S
N1438      H1441   1.040       .  S
N1438      H1442   1.044       .  S
C1443      C1444   1.414       .  A
C1443      C1448   1.408       .  A
C1443      H1450   1.078       .  S
C1444      C1445   1.429       .  A
C1445      C1446   1.403       .  A
C1445      N1452   1.432       .  S
C1446      C1447   1.397       .  A
C1446      H1451   1.084       .  S
C1447      C1448   1.413       .  A
C1448      N1449   1.439       .  S
N1449      H1453   1.047       .  S
N1449      H1454   1.045       .  S
N1452      H1455   1.046       .  S
N1452      H1456   1.045       .  S
C1457      C1458   1.403       .  A
C1457      C1462   1.411       .  A
C1457      H1464   1.084       .  S
C1458      C1459   1.419       .  A
C1459      C1460   1.385       .  A
C1459      N1466   1.434       .  S
C1460      C1461   1.409       .  A
C1460      H1465   1.084       .  S
C1461      C1462   1.428       .  A
C1462      N1463   1.432       .  S
N1463      H1467   1.045       .  S
N1463      H1468   1.045       .  S
N1466      H1469   1.046       .  S
N1466      H1470   1.045       .  S
C1471      C1472   1.399       .  A
C1471      C1476   1.400       .  A
C1471      H1478   1.084       .  S
C1472      C1473   1.406       .  A
C1473      C1474   1.390       .  A
C1473      N1480   1.434       .  S
C1474      C1475   1.419       .  A
C1474      H1479   1.077       .  S
C1475      C1476   1.424       .  A
C1476      N1477   1.433       .  S
N1477      H1481   1.046       .  S
N1477      H1482   1.045       .  S
N1480      H1483   1.046       .  S
N1480      H1484   1.043       .  S
C1485      C1486   1.416       .  A
C1485      C1490   1.396       .  A
C1485      H1492   1.078       .  S
C1486      C1487   1.428       .  A
C1487      C1488   1.406       .  A
C1487      N1494   1.432       .  S
C1488      C1489   1.397       .  A
C1488      H1493   1.084       .  S
C1489      C1490   1.411       .  A
C1490      N1491   1.435       .  S
N1491      H1495   1.044       .  S
N1491      H1496   1.046       .  S
N1494      H1497   1.046       .  S
N1494      H1498   1.045       .  S
C1499      C1500   1.403       .  A
C1499      C1504   1.406       .  A
C1499      H1506   1.084       .  S
C1500      C1501   1.412       .  A
C1501      C1502   1.390       .  A
C1501      N1508   1.433       .  S
C1502      C1503   1.413       .  A
C1502      H1507   1.081       .  S
C1503      C1504   1.423       .  A
C1504      N1505   1.432       .  S
N1505      H1509   1.045       .  S
N1505      H1510   1.046       .  S
N1508      H1511   1.045       .  S
N1508      H1512   1.046       .  S
C1513      C1514   1.418       .  A
C1513      C1518   1.392       .  A
C1513      H1520   1.083       .  S
C1514      C1515   1.433       .  A
C1515      C1516   1.406       .  A
C1515      N1522   1.431       .  S
C1516      C1517   1.394       .  A
C1516      H1521   1.084       .  S
C1517      C1518   1.408       .  A
C1518      N1519   1.441       .  S
N1519      H1523   1.045       .  S
N1519      H1524   1.043       .  S
N1522      H1525   1.046       .  S
N1522      H1526   1.046       .  S
C1527      C1528   1.417       .  A
C1527      C1532   1.402       .  A
C1527      H1534   1.084       .  S
C1528      C1529   1.430       .  A
C1529      C1530   1.394       .  A
C1529      N1536   1.434       .  S
C1530      C1531   1.393       .  A
C1530      H1535   1.086       .  S
C1531      C1532   1.408       .  A
C1532      N1533   1.438       .  S
N1533      H1537   1.046       .  S
N1533      H1538   1.043       .  S
N1536      H1539   1.046       .  S
N1536      H1540   1.046       .  S
C1541      C1542   1.413       .  A
C1541      C1546   1.397       .  A
C1541      H1548   1.079       .  S
C1542      C1543   1.433       .  A
C1543      C1544   1.408       .  A
C1543      N1550   1.432       .  S
C1544      C1545   1.395       .  A
C1544      H1549   1.084       .  S
C1545      C1546   1.411       .  A
C1546      N1547   1.441       .  S
N1547      H1551   1.045       .  S
N1547      H1552   1.043       .  S
N1550      H1553   1.046       .  S
N1550      H1554   1.046       .  S
C1555      C1556   1.418       .  A
C1555      C1560   1.412       .  A
C1555      H1562   1.082       .  S
C1556      C1557   1.429       .  A
C1557      C1558   1.388       .  A
C1557      N1564   1.434       .  S
C1558      C1559   1.393       .  A
C1558      H1563   1.085       .  S
C1559      C1560   1.407       .  A
C1560      N1561   1.437       .  S
N1561      H1565   1.046       .  S
N1561      H1566   1.045   1_556  S
N1564      H1567   1.046       .  S
N1564      H1568   1.046       .  S
C1569      C1570   1.412       .  A
C1569      C1574   1.401       .  A
C1569      H1576   1.081       .  S
C1570      C1571   1.426       .  A
C1571      C1572   1.415       .  A
C1571      N1578   1.431       .  S
C1572      C1573   1.405       .  A
C1572      H1577   1.083       .  S
C1573      C1574   1.417       .  A
C1574      N1575   1.440       .  S
N1575      H1579   1.046       .  S
N1575      H1580   1.046       .  S
N1578      H1581   1.045       .  S
N1578      H1582   1.046       .  S
C1583      C1584   1.415       .  A
C1583      C1588   1.399       .  A
C1583      H1590   1.083       .  S
C1584      C1585   1.437       .  A
C1585      C1586   1.404       .  A
C1585      N1592   1.432       .  S
C1586      C1587   1.395       .  A
C1586      H1591   1.084       .  S
C1587      C1588   1.404       .  A
C1588      N1589   1.433       .  S
N1589      H1593   1.046   1_565  S
N1589      H1594   1.046       .  S
N1592      H1595   1.046       .  S
N1592      H1596   1.046       .  S
C1597      C1598   1.421       .  A
C1597      C1602   1.393       .  A
C1597      H1604   1.084       .  S
C1598      C1599   1.430       .  A
C1599      C1600   1.408       .  A
C1599      N1606   1.430       .  S
C1600      C1601   1.400       .  A
C1600      H1605   1.084       .  S
C1601      C1602   1.402       .  A
C1602      N1603   1.433       .  S
N1603      H1607   1.046       .  S
N1603      H1608   1.045       .  S
N1606      H1609   1.046       .  S
N1606      H1610   1.046       .  S
C1611      C1612   1.417       .  A
C1611      C1616   1.401       .  A
C1611      H1618   1.081       .  S
C1612      C1613   1.426       .  A
C1613      C1614   1.406       .  A
C1613      N1620   1.429       .  S
C1614      C1615   1.396       .  A
C1614      H1619   1.084       .  S
C1615      C1616   1.411       .  A
C1616      N1617   1.438       .  S
N1617      H1621   1.046       .  S
N1617      H1622   1.044       .  S
N1620      H1623   1.046       .  S
N1620      H1624   1.046       .  S
C1625      C1626   1.417       .  A
C1625      C1630   1.407       .  A
C1625      H1632   1.083       .  S
C1626      C1627   1.428       .  A
C1627      C1628   1.405       .  A
C1627      N1634   1.432       .  S
C1628      C1629   1.401       .  A
C1628      H1633   1.084       .  S
C1629      C1630   1.407       .  A
C1630      N1631   1.432       .  S
N1631      H1635   1.045       .  S
N1631      H1636   1.046       .  S
N1634      H1637   1.045       .  S
N1634      H1638   1.046       .  S
C1639      C1640   1.420       .  A
C1639      C1644   1.405       .  A
C1639      H1646   1.079       .  S
C1640      C1641   1.422       .  A
C1641      C1642   1.400       .  A
C1641      N1648   1.430       .  S
C1642      C1643   1.402       .  A
C1642      H1647   1.084       .  S
C1643      C1644   1.409       .  A
C1644      N1645   1.439       .  S
N1645      H1649   1.046       .  S
N1645      H1650   1.046       .  S
N1648      H1651   1.046       .  S
N1648      H1652   1.045       .  S
C1653      C1654   1.390       .  A
C1653      C1658   1.398       .  A
C1653      H1660   1.085       .  S
C1654      C1655   1.407       .  A
C1655      C1656   1.400       .  A
C1655      N1662   1.439       .  S
C1656      C1657   1.418       .  A
C1656      H1661   1.081       .  S
C1657      C1658   1.445       .  A
C1658      N1659   1.434       .  S
N1659      H1663   1.043       .  S
N1659      H1664   1.038       .  S
N1662      H1665   1.044       .  S
N1662      H1666   1.046       .  S
C1667      C1668   1.396       .  A
C1667      C1672   1.401       .  A
C1667      H1674   1.084       .  S
C1668      C1669   1.412       .  A
C1669      C1670   1.399       .  A
C1669      N1676   1.439       .  S
C1670      C1671   1.411       .  A
C1670      H1675   1.074       .  S
C1671      C1672   1.436       .  A
C1672      N1673   1.433       .  S
N1673      H1677   1.046       .  S
N1673      H1678   1.046       .  S
N1676      H1679   1.046   1_565  S
N1676      H1680   1.046   1_565  S
C1681      C1682   1.416       .  A
C1681      C1686   1.403       .  A
C1681      H1688   1.083       .  S
C1682      C1683   1.429       .  A
C1683      C1684   1.404       .  A
C1683      N1690   1.432       .  S
C1684      C1685   1.400       .  A
C1684      H1689   1.084       .  S
C1685      C1686   1.414       .  A
C1686      N1687   1.440       .  S
N1687      H1691   1.045       .  S
N1687      H1692   1.044       .  S
N1690      H1693   1.046       .  S
N1690      H1694   1.046       .  S
C1695      C1696   1.406       .  A
C1695      C1700   1.400       .  A
C1695      H1702   1.083       .  S
C1696      C1697   1.419       .  A
C1697      C1698   1.415       .  A
C1697      N1704   1.431       .  S
C1698      C1699   1.420       .  A
C1698      H1703   1.079       .  S
C1699      C1700   1.424       .  A
C1700      N1701   1.432       .  S
N1701      H1705   1.046       .  S
N1701      H1706   1.046       .  S
N1704      H1707   1.045       .  S
N1704      H1708   1.045       .  S
C1709      C1710   1.396       .  A
C1709      C1714   1.398       .  A
C1709      H1716   1.084       .  S
C1710      C1711   1.415       .  A
C1711      C1712   1.400       .  A
C1711      N1718   1.434       .  S
C1712      C1713   1.412       .  A
C1712      H1717   1.080       .  S
C1713      C1714   1.426       .  A
C1714      N1715   1.430       .  S
N1715      H1719   1.045       .  S
N1715      H1720   1.046       .  S
N1718      H1721   1.046       .  S
N1718      H1722   1.046       .  S
C1723      C1724   1.408       .  A
C1723      C1728   1.402       .  A
C1723      H1730   1.083       .  S
C1724      C1725   1.414       .  A
C1725      C1726   1.402       .  A
C1725      N1732   1.432       .  S
C1726      C1727   1.420       .  A
C1726      H1731   1.081       .  S
C1727      C1728   1.422       .  A
C1728      N1729   1.433       .  S
N1729      H1733   1.046       .  S
N1729      H1734   1.046       .  S
N1732      H1735   1.045       .  S
N1732      H1736   1.045       .  S
C1737      C1738   1.391       .  A
C1737      C1742   1.397       .  A
C1737      H1744   1.085       .  S
C1738      C1739   1.405       .  A
C1739      C1740   1.405       .  A
C1739      N1746   1.433       .  S
C1740      C1741   1.416       .  A
C1740      H1745   1.079       .  S
C1741      C1742   1.443       .  A
C1742      N1743   1.433       .  S
N1743      H1747   1.042       .  S
N1743      H1748   1.038       .  S
N1746      H1749   1.046       .  S
N1746      H1750   1.046       .  S
C1751      C1752   1.399       .  A
C1751      C1756   1.404       .  A
C1751      H1758   1.085       .  S
C1752      C1753   1.410       .  A
C1753      C1754   1.400       .  A
C1753      N1760   1.432       .  S
C1754      C1755   1.416       .  A
C1754      H1759   1.083       .  S
C1755      C1756   1.428       .  A
C1756      N1757   1.433       .  S
N1757      H1761   1.046       .  S
N1757      H1762   1.046       .  S
N1760      H1763   1.046       .  S
N1760      H1764   1.044       .  S
C1765      C1766   1.397       .  A
C1765      C1770   1.404       .  A
C1765      H1772   1.084       .  S
C1766      C1767   1.416       .  A
C1767      C1768   1.405       .  A
C1767      N1774   1.439       .  S
C1768      C1769   1.410       .  A
C1768      H1773   1.080       .  S
C1769      C1770   1.428       .  A
C1770      N1771   1.431       .  S
N1771      H1775   1.045       .  S
N1771      H1776   1.046       .  S
N1774      H1777   1.046       .  S
N1774      H1778   1.046       .  S
C1779      C1780   1.397       .  A
C1779      C1784   1.402       .  A
C1779      H1786   1.084       .  S
C1780      C1781   1.412       .  A
C1781      C1782   1.397       .  A
C1781      N1788   1.437       .  S
C1782      C1783   1.410       .  A
C1782      H1787   1.079       .  S
C1783      C1784   1.428       .  A
C1784      N1785   1.432       .  S
N1785      H1789   1.046       .  S
N1785      H1790   1.046       .  S
N1788      H1791   1.045       .  S
N1788      H1792   1.046       .  S
C1793      C1794   1.421       .  A
C1793      C1798   1.387       .  A
C1793      H1800   1.078       .  S
C1794      C1795   1.426       .  A
C1795      C1796   1.412       .  A
C1795      N1802   1.430       .  S
C1796      C1797   1.400       .  A
C1796      H1801   1.084       .  S
C1797      C1798   1.402       .  A
C1798      N1799   1.432       .  S
N1799      H1803   1.043       .  S
N1799      H1804   1.045       .  S
N1802      H1805   1.045       .  S
N1802      H1806   1.046       .  S
C1807      C1808   1.420       .  A
C1807      C1812   1.396       .  A
C1807      H1814   1.079       .  S
C1808      C1809   1.429       .  A
C1809      C1810   1.412       .  A
C1809      N1816   1.430       .  S
C1810      C1811   1.398       .  A
C1810      H1815   1.084       .  S
C1811      C1812   1.406       .  A
C1812      N1813   1.434       .  S
N1813      H1817   1.045       .  S
N1813      H1818   1.046       .  S
N1816      H1819   1.045       .  S
N1816      H1820   1.046       .  S
C1821      C1822   1.395       .  A
C1821      C1826   1.397       .  A
C1821      H1828   1.085       .  S
C1822      C1823   1.412       .  A
C1823      C1824   1.408       .  A
C1823      N1830   1.438       .  S
C1824      C1825   1.418       .  A
C1824      H1829   1.079       .  S
C1825      C1826   1.426       .  A
C1826      N1827   1.432       .  S
N1827      H1831   1.045       .  S
N1827      H1832   1.046       .  S
N1830      H1833   1.044       .  S
N1830      H1834   1.045       .  S
C1835      C1836   1.417       .  A
C1835      C1840   1.412       .  A
C1835      H1842   1.083       .  S
C1836      C1837   1.429       .  A
C1837      C1838   1.399       .  A
C1837      N1844   1.433       .  S
C1838      C1839   1.395       .  A
C1838      H1843   1.085       .  S
C1839      C1840   1.408       .  A
C1840      N1841   1.437       .  S
N1841      H1845   1.045       .  S
N1841      H1846   1.046       .  S
N1844      H1847   1.046       .  S
N1844      H1848   1.046       .  S
C1849      C1850   1.420       .  A
C1849      C1854   1.411       .  A
C1849      H1856   1.080       .  S
C1850      C1851   1.424       .  A
C1851      C1852   1.405       .  A
C1851      N1858   1.431       .  S
C1852      C1853   1.399       .  A
C1852      H1857   1.084       .  S
C1853      C1854   1.413       .  A
C1854      N1855   1.438       .  S
N1855      H1859   1.046       .  S
N1855      H1860   1.044       .  S
N1858      H1861   1.046       .  S
N1858      H1862   1.046       .  S
C1863      C1864   1.419       .  A
C1863      C1868   1.405       .  A
C1863      H1870   1.078       .  S
C1864      C1865   1.427       .  A
C1865      C1866   1.403       .  A
C1865      N1872   1.433       .  S
C1866      C1867   1.399       .  A
C1866      H1871   1.084       .  S
C1867      C1868   1.405       .  A
C1868      N1869   1.433       .  S
N1869      H1873   1.046       .  S
N1869      H1874   1.046       .  S
N1872      H1875   1.046       .  S
N1872      H1876   1.046       .  S
C1877      C1878   1.400       .  A
C1877      C1882   1.415       .  A
C1877      H1884   1.084       .  S
C1878      C1879   1.412       .  A
C1879      C1880   1.396       .  A
C1879      N1886   1.442       .  S
C1880      C1881   1.417       .  A
C1880      H1885   1.084       .  S
C1881      C1882   1.434       .  A
C1882      N1883   1.430       .  S
N1883      H1887   1.046       .  S
N1883      H1888   1.046       .  S
N1886      H1889   1.042       .  S
N1886      H1890   1.046       .  S
C1891      C1892   1.417       .  A
C1891      C1896   1.409       .  A
C1891      H1898   1.079       .  S
C1892      C1893   1.426       .  A
C1893      C1894   1.408       .  A
C1893      N1900   1.430       .  S
C1894      C1895   1.402       .  A
C1894      H1899   1.084       .  S
C1895      C1896   1.412       .  A
C1896      N1897   1.435       .  S
N1897      H1901   1.045       .  S
N1897      H1902   1.043       .  S
N1900      H1903   1.046       .  S
N1900      H1904   1.046       .  S
C1905      C1906   1.419       .  A
C1905      C1910   1.408       .  A
C1905      H1912   1.084       .  S
C1906      C1907   1.436       .  A
C1907      C1908   1.393       .  A
C1907      N1914   1.432       .  S
C1908      C1909   1.388       .  A
C1908      H1913   1.086       .  S
C1909      C1910   1.410       .  A
C1910      N1911   1.437       .  S
N1911      H1915   1.046       .  S
N1911      H1916   1.044       .  S
N1914      H1917   1.046       .  S
N1914      H1918   1.046       .  S
C1919      C1920   1.401       .  A
C1919      C1924   1.404       .  A
C1919      H1926   1.084       .  S
C1920      C1921   1.406       .  A
C1921      C1922   1.397       .  A
C1921      N1928   1.440       .  S
C1922      C1923   1.422       .  A
C1922      H1927   1.079       .  S
C1923      C1924   1.422       .  A
C1924      N1925   1.432       .  S
N1925      H1929   1.045       .  S
N1925      H1930   1.046       .  S
N1928      H1931   1.042       .  S
N1928      H1932   1.046       .  S
C1933      C1934   1.413       .  A
C1933      C1938   1.392       .  A
C1933      H1940   1.081       .  S
C1934      C1935   1.424       .  A
C1935      C1936   1.408       .  A
C1935      N1942   1.432       .  S
C1936      C1937   1.400       .  A
C1936      H1941   1.084       .  S
C1937      C1938   1.408       .  A
C1938      N1939   1.434       .  S
N1939      H1943   1.045       .  S
N1939      H1944   1.045       .  S
N1942      H1945   1.046       .  S
N1942      H1946   1.045       .  S
C1947      C1948   1.398       .  A
C1947      C1952   1.410       .  A
C1947      H1954   1.084       .  S
C1948      C1949   1.407       .  A
C1949      C1950   1.393       .  A
C1949      N1956   1.442       .  S
C1950      C1951   1.420       .  A
C1950      H1955   1.079       .  S
C1951      C1952   1.425       .  A
C1952      N1953   1.429       .  S
N1953      H1957   1.045       .  S
N1953      H1958   1.046       .  S
N1956      H1959   1.043       .  S
N1956      H1960   1.045       .  S
C1961      C1962   1.411       .  A
C1961      C1966   1.394       .  A
C1961      H1968   1.083       .  S
C1962      C1963   1.427       .  A
C1963      C1964   1.412       .  A
C1963      N1970   1.432       .  S
C1964      C1965   1.406       .  A
C1964      H1969   1.083       .  S
C1965      C1966   1.422       .  A
C1966      N1967   1.434       .  S
N1967      H1971   1.046       .  S
N1967      H1972   1.045       .  S
N1970      H1973   1.046       .  S
N1970      H1974   1.045       .  S
C1975      C1976   1.399       .  A
C1975      C1980   1.404       .  A
C1975      H1982   1.084       .  S
C1976      C1977   1.411       .  A
C1977      C1978   1.400       .  A
C1977      N1984   1.433       .  S
C1978      C1979   1.418       .  A
C1978      H1983   1.078       .  S
C1979      C1980   1.429       .  A
C1980      N1981   1.433       .  S
N1981      H1985   1.046       .  S
N1981      H1986   1.045       .  S
N1984      H1987   1.046       .  S
N1984      H1988   1.045       .  S
C1989      C1990   1.423       .  A
C1989      C1994   1.407       .  A
C1989      H1996   1.079       .  S
C1990      C1991   1.422       .  A
C1991      C1992   1.400       .  A
C1991      N1998   1.430       .  S
C1992      C1993   1.402       .  A
C1992      H1997   1.084       .  S
C1993      C1994   1.406       .  A
C1994      N1995   1.438       .  S
N1995      H1999   1.046       .  S
N1995      H2000   1.045       .  S
N1998      H2001   1.045       .  S
N1998      H2002   1.046       .  S
C2003      C2004   1.397       .  A
C2003      C2008   1.409       .  A
C2003      H2010   1.084       .  S
C2004      C2005   1.409       .  A
C2005      C2006   1.391       .  A
C2005      N2012   1.439       .  S
C2006      C2007   1.415       .  A
C2006      H2011   1.082       .  S
C2007      C2008   1.433       .  A
C2008      N2009   1.438       .  S
N2009      H2013   1.046       .  S
N2009      H2014   1.043       .  S
N2012      H2015   1.043       .  S
N2012      H2016   1.045       .  S
C2017      C2018   1.420       .  A
C2017      C2022   1.408       .  A
C2017      H2024   1.080       .  S
C2018      C2019   1.422       .  A
C2019      C2020   1.400       .  A
C2019      N2026   1.433       .  S
C2020      C2021   1.407       .  A
C2020      H2025   1.083       .  S
C2021      C2022   1.416       .  A
C2022      N2023   1.432       .  S
N2023      H2027   1.045       .  S
N2023      H2028   1.045       .  S
N2026      H2029   1.046       .  S
N2026      H2030   1.046       .  S
C2031      C2032   1.399       .  A
C2031      C2036   1.411       .  A
C2031      H2038   1.084       .  S
C2032      C2033   1.397       .  A
C2033      C2034   1.393       .  A
C2033      N2040   1.435       .  S
C2034      C2035   1.419       .  A
C2034      H2039   1.076       .  S
C2035      C2036   1.426       .  A
C2036      N2037   1.432       .  S
N2037      H2041   1.045       .  S
N2037      H2042   1.045       .  S
N2040      H2043   1.046       .  S
N2040      H2044   1.046       .  S
C2045      C2046   1.420       .  A
C2045      C2050   1.398       .  A
C2045      H2052   1.084       .  S
C2046      C2047   1.427       .  A
C2047      C2048   1.402       .  A
C2047      N2054   1.431       .  S
C2048      C2049   1.400       .  A
C2048      H2053   1.085       .  S
C2049      C2050   1.409       .  A
C2050      N2051   1.438       .  S
N2051      H2055   1.046       .  S
N2051      H2056   1.041       .  S
N2054      H2057   1.046       .  S
N2054      H2058   1.046       .  S
C2059      C2060   1.422       .  A
C2059      C2064   1.406       .  A
C2059      H2066   1.083       .  S
C2060      C2061   1.424       .  A
C2061      C2062   1.399       .  A
C2061      N2068   1.433       .  S
C2062      C2063   1.406       .  A
C2062      H2067   1.084       .  S
C2063      C2064   1.407       .  A
C2064      N2065   1.437       .  S
N2065      H2069   1.046       .  S
N2065      H2070   1.045       .  S
N2068      H2071   1.046       .  S
N2068      H2072   1.046       .  S
C2073      C2074   1.395       .  A
C2073      C2078   1.396       .  A
C2073      H2080   1.085       .  S
C2074      C2075   1.407       .  A
C2075      C2076   1.404       .  A
C2075      N2082   1.438       .  S
C2076      C2077   1.421       .  A
C2076      H2081   1.080       .  S
C2077      C2078   1.423       .  A
C2078      N2079   1.432       .  S
N2079      H2083   1.045       .  S
N2079      H2084   1.046       .  S
N2082      H2085   1.044       .  S
N2082      H2086   1.046       .  S
C2087      C2088   1.418       .  A
C2087      C2092   1.395       .  A
C2087      H2094   1.077       .  S
C2088      C2089   1.424       .  A
C2089      C2090   1.414       .  A
C2089      N2096   1.432       .  S
C2090      C2091   1.405       .  A
C2090      H2095   1.084       .  S
C2091      C2092   1.408       .  A
C2092      N2093   1.441       .  S
N2093      H2097   1.046       .  S
N2093      H2098   1.046       .  S
N2096      H2099   1.046       .  S
N2096      H2100   1.045       .  S
C2101      C2102   1.398       .  A
C2101      C2106   1.393       .  A
C2101      H2108   1.084       .  S
C2102      C2103   1.417       .  A
C2103      C2104   1.410       .  A
C2103      N2110   1.438   1_556  S
C2104      C2105   1.414       .  A
C2104      H2109   1.078       .  S
C2105      C2106   1.425       .  A
C2106      N2107   1.432       .  S
N2107      H2111   1.046       .  S
N2107      H2112   1.046       .  S
N2110      H2113   1.046       .  S
N2110      H2114   1.045       .  S
C2115      C2116   1.419       .  A
C2115      C2120   1.414       .  A
C2115      H2122   1.078       .  S
C2116      C2117   1.425       .  A
C2117      C2118   1.396       .  A
C2117      N2124   1.434       .  S
C2118      C2119   1.403       .  A
C2118      H2123   1.084       .  S
C2119      C2120   1.410       .  A
C2120      N2121   1.431       .  S
N2121      H2125   1.046       .  S
N2121      H2126   1.046       .  S
N2124      H2127   1.046       .  S
N2124      H2128   1.046       .  S
C2129      C2130   1.420       .  A
C2129      C2134   1.407       .  A
C2129      H2136   1.075       .  S
C2130      C2131   1.427       .  A
C2131      C2132   1.399       .  A
C2131      N2138   1.433       .  S
C2132      C2133   1.396       .  A
C2132      H2137   1.084       .  S
C2133      C2134   1.403       .  A
C2134      N2135   1.439       .  S
N2135      H2139   1.043       .  S
N2135      H2140   1.048       .  S
N2138      H2141   1.046       .  S
N2138      H2142   1.046       .  S
C2143      C2144   1.415       .  A
C2143      C2148   1.395       .  A
C2143      H2150   1.080       .  S
C2144      C2145   1.425       .  A
C2145      C2146   1.411       .  A
C2145      N2152   1.432       .  S
C2146      C2147   1.401       .  A
C2146      H2151   1.084       .  S
C2147      C2148   1.408       .  A
C2148      N2149   1.433       .  S
N2149      H2153   1.043       .  S
N2149      H2154   1.046       .  S
N2152      H2155   1.046       .  S
N2152      H2156   1.045       .  S
C2157      C2158   1.417       .  A
C2157      C2162   1.391       .  A
C2157      H2164   1.078       .  S
C2158      C2159   1.425       .  A
C2159      C2160   1.417       .  A
C2159      N2166   1.432       .  S
C2160      C2161   1.404       .  A
C2160      H2165   1.083       .  S
C2161      C2162   1.400       .  A
C2162      N2163   1.432       .  S
N2163      H2167   1.045       .  S
N2163      H2168   1.045       .  S
N2166      H2169   1.046       .  S
N2166      H2170   1.045       .  S
C2171      C2172   1.392       .  A
C2171      C2176   1.395       .  A
C2171      H2178   1.085       .  S
C2172      C2173   1.410       .  A
C2173      C2174   1.411       .  A
C2173      N2180   1.438       .  S
C2174      C2175   1.422       .  A
C2174      H2179   1.078       .  S
C2175      C2176   1.442       .  A
C2176      N2177   1.436       .  S
N2177      H2181   1.043       .  S
N2177      H2182   1.040       .  S
N2180      H2183   1.044       .  S
N2180      H2184   1.046       .  S
C2185      C2186   1.421       .  A
C2185      C2190   1.391       .  A
C2185      H2192   1.077       .  S
C2186      C2187   1.427       .  A
C2187      C2188   1.417       .  A
C2187      N2194   1.432       .  S
C2188      C2189   1.404       .  A
C2188      H2193   1.084       .  S
C2189      C2190   1.406       .  A
C2190      N2191   1.435       .  S
N2191      H2195   1.044       .  S
N2191      H2196   1.046       .  S
N2194      H2197   1.045       .  S
N2194      H2198   1.046       .  S
C2199      C2200   1.420       .  A
C2199      C2204   1.403       .  A
C2199      H2206   1.079       .  S
C2200      C2201   1.431       .  A
C2201      C2202   1.403       .  A
C2201      N2208   1.432       .  S
C2202      C2203   1.399       .  A
C2202      H2207   1.084       .  S
C2203      C2204   1.409       .  A
C2204      N2205   1.433       .  S
N2205      H2209   1.045   1_554  S
N2205      H2210   1.046       .  S
N2208      H2211   1.046       .  S
N2208      H2212   1.046       .  S
C2213      C2214   1.416       .  A
C2213      C2218   1.409       .  A
C2213      H2220   1.079       .  S
C2214      C2215   1.428       .  A
C2215      C2216   1.396       .  A
C2215      N2222   1.431       .  S
C2216      C2217   1.391       .  A
C2216      H2221   1.085       .  S
C2217      C2218   1.407       .  A
C2218      N2219   1.438       .  S
N2219      H2223   1.045   1_554  S
N2219      H2224   1.045   1_554  S
N2222      H2225   1.046       .  S
N2222      H2226   1.046       .  S
C2227      C2228   1.416       .  A
C2227      C2232   1.403       .  A
C2227      H2234   1.080       .  S
C2228      C2229   1.426       .  A
C2229      C2230   1.395       .  A
C2229      N2236   1.433       .  S
C2230      C2231   1.393       .  A
C2230      H2235   1.085       .  S
C2231      C2232   1.408       .  A
C2232      N2233   1.432       .  S
N2233      H2237   1.046       .  S
N2233      H2238   1.044   1_455  S
N2236      H2239   1.045       .  S
N2236      H2240   1.047       .  S
C2241      C2242   1.415       .  A
C2241      C2246   1.404       .  A
C2241      H2248   1.077       .  S
C2242      C2243   1.432       .  A
C2243      C2244   1.401       .  A
C2243      N2250   1.432       .  S
C2244      C2245   1.398       .  A
C2244      H2249   1.084       .  S
C2245      C2246   1.410       .  A
C2246      N2247   1.439       .  S
N2247      H2251   1.045       .  S
N2247      H2252   1.046       .  S
N2250      H2253   1.045       .  S
N2250      H2254   1.046       .  S
C2255      C2256   1.422       .  A
C2255      C2260   1.399       .  A
C2255      H2262   1.083       .  S
C2256      C2257   1.426       .  A
C2257      C2258   1.404       .  A
C2257      N2264   1.432       .  S
C2258      C2259   1.404       .  A
C2258      H2263   1.084       .  S
C2259      C2260   1.401       .  A
C2260      N2261   1.432       .  S
N2261      H2265   1.046       .  S
N2261      H2266   1.045       .  S
N2264      H2267   1.046       .  S
N2264      H2268   1.045       .  S
C2269      C2270   1.418       .  A
C2269      C2274   1.411       .  A
C2269      H2276   1.080       .  S
C2270      C2271   1.422       .  A
C2271      C2272   1.392       .  A
C2271      N2278   1.432       .  S
C2272      C2273   1.403       .  A
C2272      H2277   1.083       .  S
C2273      C2274   1.418       .  A
C2274      N2275   1.431       .  S
N2275      H2279   1.046   1_655  S
N2275      H2280   1.045   1_655  S
N2278      H2281   1.046       .  S
N2278      H2282   1.046       .  S
C2283      C2284   1.400       .  A
C2283      C2288   1.411       .  A
C2283      H2290   1.084       .  S
C2284      C2285   1.401       .  A
C2285      C2286   1.397       .  A
C2285      N2292   1.440       .  S
C2286      C2287   1.420       .  A
C2286      H2291   1.079       .  S
C2287      C2288   1.424       .  A
C2288      N2289   1.432       .  S
N2289      H2293   1.046       .  S
N2289      H2294   1.045       .  S
N2292      H2295   1.045       .  S
N2292      H2296   1.046       .  S
C2297      C2298   1.414       .  A
C2297      C2302   1.396       .  A
C2297      H2304   1.080       .  S
C2298      C2299   1.426       .  A
C2299      C2300   1.410       .  A
C2299      N2306   1.432       .  S
C2300      C2301   1.399       .  A
C2300      H2305   1.084       .  S
C2301      C2302   1.411       .  A
C2302      N2303   1.440       .  S
N2303      H2307   1.046       .  S
N2303      H2308   1.043       .  S
N2306      H2309   1.045       .  S
N2306      H2310   1.046       .  S
C2311      C2312   1.418       .  A
C2311      C2316   1.402       .  A
C2311      H2318   1.075       .  S
C2312      C2313   1.432       .  A
C2313      C2314   1.411       .  A
C2313      N2320   1.431       .  S
C2314      C2315   1.398       .  A
C2314      H2319   1.084       .  S
C2315      C2316   1.415       .  A
C2316      N2317   1.442       .  S
N2317      H2321   1.046       .  S
N2317      H2322   1.043       .  S
N2320      H2323   1.046       .  S
N2320      H2324   1.046       .  S
C2325      C2326   1.420       .  A
C2325      C2330   1.411       .  A
C2325      H2332   1.084       .  S
C2326      C2327   1.434       .  A
C2327      C2328   1.396       .  A
C2327      N2334   1.434       .  S
C2328      C2329   1.401       .  A
C2328      H2333   1.084       .  S
C2329      C2330   1.417       .  A
C2330      N2331   1.431       .  S
N2331      H2335   1.044       .  S
N2331      H2336   1.046       .  S
N2334      H2337   1.046       .  S
N2334      H2338   1.046       .  S
C2339      C2340   1.417       .  A
C2339      C2344   1.404       .  A
C2339      H2346   1.079       .  S
C2340      C2341   1.428       .  A
C2341      C2342   1.414       .  A
C2341      N2348   1.429       .  S
C2342      C2343   1.400       .  A
C2342      H2347   1.084       .  S
C2343      C2344   1.414       .  A
C2344      N2345   1.440       .  S
N2345      H2349   1.046       .  S
N2345      H2350   1.043       .  S
N2348      H2351   1.045       .  S
N2348      H2352   1.045       .  S
C2353      C2354   1.398       .  A
C2353      C2358   1.398       .  A
C2353      H2360   1.085       .  S
C2354      C2355   1.415       .  A
C2355      C2356   1.410       .  A
C2355      N2362   1.438       .  S
C2356      C2357   1.419       .  A
C2356      H2361   1.082       .  S
C2357      C2358   1.430       .  A
C2358      N2359   1.433       .  S
N2359      H2363   1.046       .  S
N2359      H2364   1.046       .  S
N2362      H2365   1.042       .  S
N2362      H2366   1.046       .  S
C2367      C2368   1.417       .  A
C2367      C2372   1.410       .  A
C2367      H2374   1.078       .  S
C2368      C2369   1.423       .  A
C2369      C2370   1.395       .  A
C2369      N2376   1.428       .  S
C2370      C2371   1.398       .  A
C2370      H2375   1.084       .  S
C2371      C2372   1.415       .  A
C2372      N2373   1.438       .  S
N2373      H2377   1.046       .  S
N2373      H2378   1.045       .  S
N2376      H2379   1.045       .  S
N2376      H2380   1.046       .  S
C2381      C2382   1.415       .  A
C2381      C2386   1.405       .  A
C2381      H2388   1.080       .  S
C2382      C2383   1.427       .  A
C2383      C2384   1.396       .  A
C2383      N2390   1.433       .  S
C2384      C2385   1.392       .  A
C2384      H2389   1.085       .  S
C2385      C2386   1.414       .  A
C2386      N2387   1.439       .  S
N2387      H2391   1.046   1_655  S
N2387      H2392   1.044   1_655  S
N2390      H2393   1.046       .  S
N2390      H2394   1.046       .  S
C2395      C2396   1.404       .  A
C2395      C2400   1.408       .  A
C2395      H2402   1.084       .  S
C2396      C2397   1.412       .  A
C2397      C2398   1.402       .  A
C2397      N2404   1.439       .  S
C2398      C2399   1.413       .  A
C2398      H2403   1.079       .  S
C2399      C2400   1.422       .  A
C2400      N2401   1.432       .  S
N2401      H2405   1.045       .  S
N2401      H2406   1.046       .  S
N2404      H2407   1.045       .  S
N2404      H2408   1.046       .  S
C2409      C2410   1.414       .  A
C2409      C2414   1.401       .  A
C2409      H2416   1.080       .  S
C2410      C2411   1.429       .  A
C2411      C2412   1.407       .  A
C2411      N2418   1.432       .  S
C2412      C2413   1.395       .  A
C2412      H2417   1.084       .  S
C2413      C2414   1.413       .  A
C2414      N2415   1.440       .  S
N2415      H2419   1.046       .  S
N2415      H2420   1.043       .  S
N2418      H2421   1.046       .  S
N2418      H2422   1.046       .  S
C2423      C2424   1.419       .  A
C2423      C2428   1.395       .  A
C2423      H2430   1.083       .  S
C2424      C2425   1.441       .  A
C2425      C2426   1.405       .  A
C2425      N2432   1.431       .  S
C2426      C2427   1.397       .  A
C2426      H2431   1.085       .  S
C2427      C2428   1.411       .  A
C2428      N2429   1.433       .  S
N2429      H2433   1.044       .  S
N2429      H2434   1.046       .  S
N2432      H2435   1.041       .  S
N2432      H2436   1.041       .  S
C2437      C2438   1.399       .  A
C2437      C2442   1.400       .  A
C2437      H2444   1.084       .  S
C2438      C2439   1.414       .  A
C2439      C2440   1.397       .  A
C2439      N2446   1.433       .  S
C2440      C2441   1.415       .  A
C2440      H2445   1.079       .  S
C2441      C2442   1.425       .  A
C2442      N2443   1.433       .  S
N2443      H2447   1.045       .  S
N2443      H2448   1.046       .  S
N2446      H2449   1.044       .  S
N2446      H2450   1.045       .  S
C2451      C2452   1.401       .  A
C2451      C2456   1.417       .  A
C2451      H2458   1.083       .  S
C2452      C2453   1.403       .  A
C2453      C2454   1.395       .  A
C2453      N2460   1.428       .  S
C2454      C2455   1.411       .  A
C2454      H2459   1.075       .  S
C2455      C2456   1.431       .  A
C2456      N2457   1.433       .  S
N2457      H2461   1.045       .  S
N2457      H2462   1.045       .  S
N2460      H2463   1.046       .  S
N2460      H2464   1.045       .  S
C2465      C2466   1.413       .  A
C2465      C2470   1.393       .  A
C2465      H2472   1.080       .  S
C2466      C2467   1.423       .  A
C2467      C2468   1.410       .  A
C2467      N2474   1.432       .  S
C2468      C2469   1.407       .  A
C2468      H2473   1.083       .  S
C2469      C2470   1.419       .  A
C2470      N2471   1.434       .  S
N2471      H2475   1.045       .  S
N2471      H2476   1.045       .  S
N2474      H2477   1.045       .  S
N2474      H2478   1.045       .  S
C2479      C2480   1.400       .  A
C2479      C2484   1.400       .  A
C2479      H2486   1.084       .  S
C2480      C2481   1.409       .  A
C2481      C2482   1.396       .  A
C2481      N2488   1.427       .  S
C2482      C2483   1.414       .  A
C2482      H2487   1.079       .  S
C2483      C2484   1.436       .  A
C2484      N2485   1.431       .  S
N2485      H2489   1.043       .  S
N2485      H2490   1.041       .  S
N2488      H2491   1.043       .  S
N2488      H2492   1.045       .  S
C2493      C2494   1.397       .  A
C2493      C2498   1.401       .  A
C2493      H2500   1.084       .  S
C2494      C2495   1.401       .  A
C2495      C2496   1.407       .  A
C2495      N2502   1.438       .  S
C2496      C2497   1.422       .  A
C2496      H2501   1.078       .  S
C2497      C2498   1.425       .  A
C2498      N2499   1.432       .  S
N2499      H2503   1.046       .  S
N2499      H2504   1.045       .  S
N2502      H2505   1.046       .  S
N2502      H2506   1.046       .  S
C2507      C2508   1.397       .  A
C2507      C2512   1.409       .  A
C2507      H2514   1.084       .  S
C2508      C2509   1.413       .  A
C2509      C2510   1.401       .  A
C2509      N2516   1.441       .  S
C2510      C2511   1.416       .  A
C2510      H2515   1.078       .  S
C2511      C2512   1.445       .  A
C2512      N2513   1.435       .  S
N2513      H2517   1.042       .  S
N2513      H2518   1.040       .  S
N2516      H2519   1.042       .  S
N2516      H2520   1.046       .  S
C2521      C2522   1.417       .  A
C2521      C2526   1.402       .  A
C2521      H2528   1.075       .  S
C2522      C2523   1.444       .  A
C2523      C2524   1.407       .  A
C2523      N2530   1.435       .  S
C2524      C2525   1.396       .  A
C2524      H2529   1.084       .  S
C2525      C2526   1.410       .  A
C2526      N2527   1.440       .  S
N2527      H2531   1.046       .  S
N2527      H2532   1.046       .  S
N2530      H2533   1.044       .  S
N2530      H2534   1.036       .  S
C2535      C2536   1.423       .  A
C2535      C2540   1.404       .  A
C2535      H2542   1.082       .  S
C2536      C2537   1.441       .  A
C2537      C2538   1.401       .  A
C2537      N2544   1.436       .  S
C2538      C2539   1.396       .  A
C2538      H2543   1.085       .  S
C2539      C2540   1.409       .  A
C2540      N2541   1.438       .  S
N2541      H2545   1.045       .  S
N2541      H2546   1.043       .  S
N2544      H2547   1.035       .  S
N2544      H2548   1.044       .  S
C2549      C2550   1.411       .  A
C2549      C2554   1.397       .  A
C2549      H2556   1.079       .  S
C2550      C2551   1.429       .  A
C2551      C2552   1.399       .  A
C2551      N2558   1.430       .  S
C2552      C2553   1.397       .  A
C2552      H2557   1.084       .  S
C2553      C2554   1.419       .  A
C2554      N2555   1.434       .  S
N2555      H2559   1.044       .  S
N2555      H2560   1.046       .  S
N2558      H2561   1.046       .  S
N2558      H2562   1.046       .  S
C2563      C2564   1.420       .  A
C2563      C2568   1.391       .  A
C2563      H2570   1.075       .  S
C2564      C2565   1.424       .  A
C2565      C2566   1.411       .  A
C2565      N2572   1.434       .  S
C2566      C2567   1.407       .  A
C2566      H2571   1.084       .  S
C2567      C2568   1.410       .  A
C2568      N2569   1.434       .  S
N2569      H2573   1.046       .  S
N2569      H2574   1.045       .  S
N2572      H2575   1.045       .  S
N2572      H2576   1.046       .  S
C2577      C2578   1.403       .  A
C2577      C2582   1.401       .  A
C2577      H2584   1.084       .  S
C2578      C2579   1.405       .  A
C2579      C2580   1.392       .  A
C2579      N2586   1.433       .  S
C2580      C2581   1.420       .  A
C2580      H2585   1.084       .  S
C2581      C2582   1.435       .  A
C2582      N2583   1.432       .  S
N2583      H2587   1.041       .  S
N2583      H2588   1.038       .  S
N2586      H2589   1.046       .  S
N2586      H2590   1.046       .  S
C2591      C2592   1.401       .  A
C2591      C2596   1.390       .  A
C2591      H2598   1.084       .  S
C2592      C2593   1.416       .  A
C2593      C2594   1.410       .  A
C2593      N2600   1.432       .  S
C2594      C2595   1.421       .  A
C2594      H2599   1.078       .  S
C2595      C2596   1.437       .  A
C2596      N2597   1.435       .  S
N2597      H2601   1.042       .  S
N2597      H2602   1.040       .  S
N2600      H2603   1.045   1_545  S
N2600      H2604   1.045   1_545  S
C2605      C2606   1.385       .  A
C2605      C2610   1.391       .  A
C2605      H2612   1.086       .  S
C2606      C2607   1.409       .  A
C2607      C2608   1.406       .  A
C2607      N2614   1.438       .  S
C2608      C2609   1.420       .  A
C2608      H2613   1.083       .  S
C2609      C2610   1.442       .  A
C2610      N2611   1.433       .  S
N2611      H2615   1.046       .  S
N2611      H2616   1.046       .  S
N2614      H2617   1.044       .  S
N2614      H2618   1.045       .  S
C2619      C2620   1.424       .  A
C2619      C2624   1.411       .  A
C2619      H2626   1.084       .  S
C2620      C2621   1.430       .  A
C2621      C2622   1.407       .  A
C2621      N2628   1.432       .  S
C2622      C2623   1.400       .  A
C2622      H2627   1.085       .  S
C2623      C2624   1.402       .  A
C2624      N2625   1.431       .  S
N2625      H2629   1.045       .  S
N2625      H2630   1.046       .  S
N2628      H2631   1.046       .  S
N2628      H2632   1.046       .  S
C2633      C2634   1.422       .  A
C2633      C2638   1.404       .  A
C2633      H2640   1.078       .  S
C2634      C2635   1.429       .  A
C2635      C2636   1.408       .  A
C2635      N2642   1.430       .  S
C2636      C2637   1.399       .  A
C2636      H2641   1.084       .  S
C2637      C2638   1.404       .  A
C2638      N2639   1.433       .  S
N2639      H2643   1.046       .  S
N2639      H2644   1.046       .  S
N2642      H2645   1.046       .  S
N2642      H2646   1.046       .  S
C2647      C2648   1.414       .  A
C2647      C2652   1.409       .  A
C2647      H2654   1.080       .  S
C2648      C2649   1.425       .  A
C2649      C2650   1.400       .  A
C2649      N2656   1.431       .  S
C2650      C2651   1.400       .  A
C2650      H2655   1.084       .  S
C2651      C2652   1.409       .  A
C2652      N2653   1.432       .  S
N2653      H2657   1.046   1_565  S
N2653      H2658   1.045   1_565  S
N2656      H2659   1.045       .  S
N2656      H2660   1.046       .  S
C2661      C2662   1.414       .  A
C2661      C2666   1.388       .  A
C2661      H2668   1.078       .  S
C2662      C2663   1.423       .  A
C2663      C2664   1.415       .  A
C2663      N2670   1.432       .  S
C2664      C2665   1.407       .  A
C2664      H2669   1.083       .  S
C2665      C2666   1.407       .  A
C2666      N2667   1.435       .  S
N2667      H2671   1.046       .  S
N2667      H2672   1.046       .  S
N2670      H2673   1.045       .  S
N2670      H2674   1.045       .  S
C2675      C2676   1.418       .  A
C2675      C2680   1.402       .  A
C2675      H2682   1.079       .  S
C2676      C2677   1.421       .  A
C2677      C2678   1.400       .  A
C2677      N2684   1.433       .  S
C2678      C2679   1.407       .  A
C2678      H2683   1.083       .  S
C2679      C2680   1.415       .  A
C2680      N2681   1.432       .  S
N2681      H2685   1.045       .  S
N2681      H2686   1.045       .  S
N2684      H2687   1.045       .  S
N2684      H2688   1.046       .  S
C2689      C2690   1.419       .  A
C2689      C2694   1.401       .  A
C2689      H2696   1.083       .  S
C2690      C2691   1.428       .  A
C2691      C2692   1.401       .  A
C2691      N2698   1.433       .  S
C2692      C2693   1.396       .  A
C2692      H2697   1.084       .  S
C2693      C2694   1.407       .  A
C2694      N2695   1.432       .  S
N2695      H2699   1.045   1_655  S
N2695      H2700   1.046       .  S
N2698      H2701   1.046       .  S
N2698      H2702   1.046       .  S
C2703      C2704   1.399       .  A
C2703      C2708   1.406       .  A
C2703      H2710   1.084       .  S
C2704      C2705   1.409       .  A
C2705      C2706   1.387       .  A
C2705      N2712   1.435       .  S
C2706      C2707   1.416       .  A
C2706      H2711   1.079       .  S
C2707      C2708   1.422       .  A
C2708      N2709   1.431       .  S
N2709      H2713   1.046       .  S
N2709      H2714   1.045       .  S
N2712      H2715   1.045       .  S
N2712      H2716   1.045       .  S
C2717      C2718   1.402       .  A
C2717      C2722   1.394       .  A
C2717      H2724   1.084       .  S
C2718      C2719   1.411       .  A
C2719      C2720   1.406       .  A
C2719      N2726   1.438       .  S
C2720      C2721   1.418       .  A
C2720      H2725   1.078       .  S
C2721      C2722   1.422       .  A
C2722      N2723   1.433       .  S
N2723      H2727   1.046       .  S
N2723      H2728   1.046       .  S
N2726      H2729   1.045       .  S
N2726      H2730   1.046       .  S
C2731      C2732   1.397       .  A
C2731      C2736   1.401       .  A
C2731      H2738   1.084       .  S
C2732      C2733   1.410       .  A
C2733      C2734   1.402       .  A
C2733      N2740   1.433       .  S
C2734      C2735   1.419       .  A
C2734      H2739   1.077       .  S
C2735      C2736   1.427       .  A
C2736      N2737   1.430       .  S
N2737      H2741   1.045       .  S
N2737      H2742   1.046       .  S
N2740      H2743   1.045       .  S
N2740      H2744   1.044       .  S
C2745      C2746   1.413       .  A
C2745      C2750   1.400       .  A
C2745      H2752   1.083       .  S
C2746      C2747   1.433       .  A
C2747      C2748   1.405       .  A
C2747      N2754   1.432       .  S
C2748      C2749   1.394       .  A
C2748      H2753   1.084       .  S
C2749      C2750   1.413       .  A
C2750      N2751   1.440       .  S
N2751      H2755   1.046       .  S
N2751      H2756   1.043       .  S
N2754      H2757   1.046       .  S
N2754      H2758   1.046       .  S
C2759      C2760   1.402       .  A
C2759      C2764   1.412       .  A
C2759      H2766   1.084       .  S
C2760      C2761   1.413       .  A
C2761      C2762   1.393       .  A
C2761      N2768   1.434       .  S
C2762      C2763   1.410       .  A
C2762      H2767   1.084       .  S
C2763      C2764   1.431       .  A
C2764      N2765   1.432       .  S
N2765      H2769   1.046       .  S
N2765      H2770   1.045       .  S
N2768      H2771   1.046       .  S
N2768      H2772   1.046       .  S
C2773      C2774   1.390       .  A
C2773      C2778   1.403       .  A
C2773      H2780   1.085       .  S
C2774      C2775   1.409       .  A
C2775      C2776   1.402       .  A
C2775      N2782   1.433       .  S
C2776      C2777   1.417       .  A
C2776      H2781   1.084       .  S
C2777      C2778   1.440       .  A
C2778      N2779   1.432       .  S
N2779      H2783   1.046       .  S
N2779      H2784   1.046       .  S
N2782      H2785   1.046       .  S
N2782      H2786   1.045       .  S
C2787      C2788   1.401       .  A
C2787      C2792   1.401       .  A
C2787      H2794   1.084       .  S
C2788      C2789   1.409       .  A
C2789      C2790   1.399       .  A
C2789      N2796   1.433       .  S
C2790      C2791   1.416       .  A
C2790      H2795   1.078       .  S
C2791      C2792   1.426       .  A
C2792      N2793   1.433       .  S
N2793      H2797   1.046       .  S
N2793      H2798   1.045       .  S
N2796      H2799   1.046       .  S
N2796      H2800   1.045       .  S
C2801      C2802   1.419       .  A
C2801      C2806   1.410       .  A
C2801      H2808   1.079       .  S
C2802      C2803   1.424       .  A
C2803      C2804   1.396       .  A
C2803      N2810   1.429       .  S
C2804      C2805   1.401       .  A
C2804      H2809   1.084       .  S
C2805      C2806   1.408       .  A
C2806      N2807   1.432       .  S
N2807      H2811   1.046       .  S
N2807      H2812   1.046       .  S
N2810      H2813   1.046       .  S
N2810      H2814   1.046       .  S
C2815      C2816   1.396       .  A
C2815      C2820   1.403       .  A
C2815      H2822   1.084       .  S
C2816      C2817   1.407       .  A
C2817      C2818   1.394       .  A
C2817      N2824   1.440       .  S
C2818      C2819   1.418       .  A
C2818      H2823   1.078       .  S
C2819      C2820   1.426       .  A
C2820      N2821   1.432       .  S
N2821      H2825   1.045       .  S
N2821      H2826   1.046       .  S
N2824      H2827   1.043       .  S
N2824      H2828   1.046       .  S
C2829      C2830   1.421       .  A
C2829      C2834   1.406       .  A
C2829      H2836   1.084       .  S
C2830      C2831   1.430       .  A
C2831      C2832   1.398       .  A
C2831      N2838   1.432       .  S
C2832      C2833   1.401       .  A
C2832      H2837   1.084       .  S
C2833      C2834   1.405       .  A
C2834      N2835   1.432       .  S
N2835      H2839   1.046       .  S
N2835      H2840   1.046       .  S
N2838      H2841   1.046       .  S
N2838      H2842   1.046       .  S
C2843      C2844   1.402       .  A
C2843      C2848   1.413       .  A
C2843      H2850   1.084       .  S
C2844      C2845   1.412       .  A
C2845      C2846   1.396       .  A
C2845      N2852   1.442       .  S
C2846      C2847   1.415       .  A
C2846      H2851   1.075       .  S
C2847      C2848   1.428       .  A
C2848      N2849   1.433       .  S
N2849      H2853   1.046       .  S
N2849      H2854   1.045       .  S
N2852      H2855   1.043       .  S
N2852      H2856   1.046       .  S
C2857      C2858   1.420       .  A
C2857      C2862   1.403       .  A
C2857      H2864   1.079       .  S
C2858      C2859   1.424       .  A
C2859      C2860   1.396       .  A
C2859      N2866   1.430       .  S
C2860      C2861   1.393       .  A
C2860      H2865   1.085       .  S
C2861      C2862   1.410       .  A
C2862      N2863   1.440       .  S
N2863      H2867   1.046       .  S
N2863      H2868   1.043       .  S
N2866      H2869   1.046       .  S
N2866      H2870   1.046       .  S
C2871      C2872   1.419       .  A
C2871      C2876   1.403       .  A
C2871      H2878   1.083       .  S
C2872      C2873   1.449       .  A
C2873      C2874   1.402       .  A
C2873      N2880   1.433       .  S
C2874      C2875   1.393       .  A
C2874      H2879   1.085       .  S
C2875      C2876   1.407       .  A
C2876      N2877   1.439       .  S
N2877      H2881   1.046       .  S
N2877      H2882   1.046       .  S
N2880      H2883   1.040       .  S
N2880      H2884   1.040       .  S
C2885      C2886   1.394       .  A
C2885      C2890   1.392       .  A
C2885      H2892   1.085       .  S
C2886      C2887   1.407       .  A
C2887      C2888   1.398       .  A
C2887      N2894   1.433       .  S
C2888      C2889   1.420       .  A
C2888      H2893   1.077       .  S
C2889      C2890   1.437       .  A
C2890      N2891   1.431       .  S
N2891      H2895   1.040       .  S
N2891      H2896   1.043       .  S
N2894      H2897   1.046       .  S
N2894      H2898   1.044       .  S
C2899      C2900   1.400       .  A
C2899      C2904   1.395       .  A
C2899      H2906   1.084       .  S
C2900      C2901   1.413       .  A
C2901      C2902   1.413       .  A
C2901      N2908   1.438       .  S
C2902      C2903   1.421       .  A
C2902      H2907   1.078       .  S
C2903      C2904   1.425       .  A
C2904      N2905   1.430       .  S
N2905      H2909   1.046       .  S
N2905      H2910   1.046       .  S
N2908      H2911   1.046       .  S
N2908      H2912   1.046       .  S
C2913      C2914   1.402       .  A
C2913      C2918   1.410       .  A
C2913      H2920   1.084       .  S
C2914      C2915   1.409       .  A
C2915      C2916   1.401       .  A
C2915      N2922   1.433       .  S
C2916      C2917   1.422       .  A
C2916      H2921   1.080       .  S
C2917      C2918   1.441       .  A
C2918      N2919   1.435       .  S
N2919      H2923   1.046       .  S
N2919      H2924   1.029       .  S
N2922      H2925   1.046       .  S
N2922      H2926   1.046       .  S
C2927      C2928   1.401       .  A
C2927      C2932   1.402       .  A
C2927      H2934   1.084       .  S
C2928      C2929   1.416       .  A
C2929      C2930   1.411       .  A
C2929      N2936   1.439       .  S
C2930      C2931   1.420       .  A
C2930      H2935   1.083       .  S
C2931      C2932   1.427       .  A
C2932      N2933   1.432       .  S
N2933      H2937   1.046       .  S
N2933      H2938   1.046       .  S
N2936      H2939   1.041       .  S
N2936      H2940   1.046       .  S
C2941      C2942   1.418       .  A
C2941      C2946   1.408       .  A
C2941      H2948   1.078       .  S
C2942      C2943   1.426       .  A
C2943      C2944   1.399       .  A
C2943      N2950   1.431       .  S
C2944      C2945   1.399       .  A
C2944      H2949   1.084       .  S
C2945      C2946   1.406       .  A
C2946      N2947   1.438       .  S
N2947      H2951   1.046       .  S
N2947      H2952   1.046       .  S
N2950      H2953   1.046       .  S
N2950      H2954   1.046       .  S
C2955      C2956   1.418       .  A
C2955      C2960   1.396       .  A
C2955      H2962   1.083       .  S
C2956      C2957   1.426       .  A
C2957      C2958   1.410       .  A
C2957      N2964   1.431       .  S
C2958      C2959   1.403       .  A
C2958      H2963   1.084       .  S
C2959      C2960   1.415       .  A
C2960      N2961   1.433       .  S
N2961      H2965   1.045       .  S
N2961      H2966   1.045       .  S
N2964      H2967   1.045       .  S
N2964      H2968   1.046       .  S
C2969      C2970   1.420       .  A
C2969      C2974   1.415       .  A
C2969      H2976   1.083       .  S
C2970      C2971   1.436       .  A
C2971      C2972   1.396       .  A
C2971      N2978   1.434       .  S
C2972      C2973   1.390       .  A
C2972      H2977   1.085       .  S
C2973      C2974   1.405       .  A
C2974      N2975   1.437       .  S
N2975      H2979   1.046       .  S
N2975      H2980   1.045       .  S
N2978      H2981   1.046       .  S
N2978      H2982   1.046       .  S
C2983      C2984   1.399       .  A
C2983      C2988   1.402       .  A
C2983      H2990   1.084       .  S
C2984      C2985   1.413       .  A
C2985      C2986   1.397       .  A
C2985      N2992   1.433       .  S
C2986      C2987   1.416       .  A
C2986      H2991   1.078       .  S
C2987      C2988   1.427       .  A
C2988      N2989   1.433       .  S
N2989      H2993   1.046       .  S
N2989      H2994   1.045       .  S
N2992      H2995   1.045       .  S
N2992      H2996   1.044       .  S
C2997      C2998   1.413       .  A
C2997      C3002   1.403       .  A
C2997      H3004   1.078       .  S
C2998      C2999   1.423       .  A
C2999      C3000   1.408       .  A
C2999      N3006   1.432       .  S
C3000      C3001   1.405       .  A
C3000      H3005   1.084       .  S
C3001      C3002   1.414       .  A
C3002      N3003   1.438       .  S
N3003      H3007   1.046       .  S
N3003      H3008   1.044       .  S
N3006      H3009   1.045       .  S
N3006      H3010   1.046       .  S
C3011      C3012   1.420       .  A
C3011      C3016   1.403       .  A
C3011      H3018   1.082       .  S
C3012      C3013   1.427       .  A
C3013      C3014   1.403       .  A
C3013      N3020   1.432       .  S
C3014      C3015   1.402       .  A
C3014      H3019   1.085       .  S
C3015      C3016   1.408       .  A
C3016      N3017   1.432       .  S
N3017      H3021   1.045       .  S
N3017      H3022   1.045       .  S
N3020      H3023   1.046       .  S
N3020      H3024   1.046       .  S
C3025      C3026   1.396       .  A
C3025      C3030   1.400       .  A
C3025      H3032   1.084       .  S
C3026      C3027   1.416       .  A
C3027      C3028   1.406       .  A
C3027      N3034   1.439       .  S
C3028      C3029   1.413       .  A
C3028      H3033   1.075       .  S
C3029      C3030   1.431       .  A
C3030      N3031   1.433       .  S
N3031      H3035   1.046       .  S
N3031      H3036   1.046       .  S
N3034      H3037   1.046       .  S
N3034      H3038   1.046       .  S
C3039      C3040   1.397       .  A
C3039      C3044   1.401       .  A
C3039      H3046   1.085       .  S
C3040      C3041   1.410       .  A
C3041      C3042   1.404       .  A
C3041      N3048   1.439       .  S
C3042      C3043   1.422       .  A
C3042      H3047   1.078       .  S
C3043      C3044   1.438       .  A
C3044      N3045   1.434       .  S
N3045      H3049   1.043       .  S
N3045      H3050   1.041       .  S
N3048      H3051   1.042       .  S
N3048      H3052   1.046       .  S
C3053      C3054   1.417       .  A
C3053      C3058   1.411       .  A
C3053      H3060   1.077       .  S
C3054      C3055   1.438       .  A
C3055      C3056   1.392       .  A
C3055      N3062   1.434       .  S
C3056      C3057   1.396       .  A
C3056      H3061   1.084       .  S
C3057      C3058   1.413       .  A
C3058      N3059   1.438       .  S
N3059      H3063   1.046       .  S
N3059      H3064   1.045       .  S
N3062      H3065   1.040       .  S
N3062      H3066   1.041       .  S
C3067      C3068   1.391       .  A
C3067      C3072   1.392       .  A
C3067      H3074   1.085       .  S
C3068      C3069   1.404       .  A
C3069      C3070   1.415       .  A
C3069      N3076   1.437       .  S
C3070      C3071   1.421       .  A
C3070      H3075   1.083       .  S
C3071      C3072   1.436       .  A
C3072      N3073   1.434       .  S
N3073      H3077   1.046       .  S
N3073      H3078   1.046       .  S
N3076      H3079   1.046       .  S
N3076      H3080   1.045       .  S
C3081      C3082   1.412       .  A
C3081      C3086   1.404       .  A
C3081      H3088   1.082       .  S
C3082      C3083   1.430       .  A
C3083      C3084   1.415       .  A
C3083      N3090   1.431       .  S
C3084      C3085   1.404       .  A
C3084      H3089   1.084       .  S
C3085      C3086   1.419       .  A
C3086      N3087   1.439       .  S
N3087      H3091   1.045       .  S
N3087      H3092   1.046       .  S
N3090      H3093   1.046       .  S
N3090      H3094   1.046       .  S
C3095      C3096   1.401       .  A
C3095      C3100   1.405       .  A
C3095      H3102   1.084       .  S
C3096      C3097   1.408       .  A
C3097      C3098   1.404       .  A
C3097      N3104   1.438       .  S
C3098      C3099   1.424       .  A
C3098      H3103   1.080       .  S
C3099      C3100   1.422       .  A
C3100      N3101   1.433       .  S
N3101      H3105   1.046       .  S
N3101      H3106   1.045       .  S
N3104      H3107   1.043       .  S
N3104      H3108   1.046       .  S
C3109      C3110   1.400       .  A
C3109      C3114   1.406       .  A
C3109      H3116   1.084       .  S
C3110      C3111   1.413       .  A
C3111      C3112   1.397       .  A
C3111      N3118   1.433       .  S
C3112      C3113   1.411       .  A
C3112      H3117   1.080       .  S
C3113      C3114   1.428       .  A
C3114      N3115   1.432       .  S
N3115      H3119   1.046       .  S
N3115      H3120   1.045       .  S
N3118      H3121   1.045       .  S
N3118      H3122   1.046       .  S
C3123      C3124   1.395       .  A
C3123      C3128   1.395       .  A
C3123      H3130   1.084       .  S
C3124      C3125   1.420       .  A
C3125      C3126   1.393       .  A
C3125      N3132   1.434       .  S
C3126      C3127   1.410       .  A
C3126      H3131   1.076       .  S
C3127      C3128   1.442       .  A
C3128      N3129   1.433       .  S
N3129      H3133   1.042       .  S
N3129      H3134   1.042       .  S
N3132      H3135   1.045       .  S
N3132      H3136   1.045       .  S
C3137      C3138   1.401       .  A
C3137      C3142   1.406       .  A
C3137      H3144   1.084       .  S
C3138      C3139   1.409       .  A
C3139      C3140   1.398       .  A
C3139      N3146   1.433       .  S
C3140      C3141   1.418       .  A
C3140      H3145   1.080       .  S
C3141      C3142   1.428       .  A
C3142      N3143   1.431       .  S
N3143      H3147   1.046       .  S
N3143      H3148   1.046       .  S
N3146      H3149   1.046       .  S
N3146      H3150   1.045       .  S
C3151      C3152   1.419       .  A
C3151      C3156   1.398       .  A
C3151      H3158   1.083       .  S
C3152      C3153   1.438       .  A
C3153      C3154   1.401       .  A
C3153      N3160   1.436       .  S
C3154      C3155   1.397       .  A
C3154      H3159   1.084       .  S
C3155      C3156   1.409       .  A
C3156      N3157   1.433       .  S
N3157      H3161   1.045       .  S
N3157      H3162   1.045       .  S
N3160      H3163   1.038       .  S
N3160      H3164   1.044       .  S
C3165      C3166   1.395       .  A
C3165      C3170   1.409       .  A
C3165      H3172   1.084       .  S
C3166      C3167   1.412       .  A
C3167      C3168   1.396       .  A
C3167      N3174   1.440       .  S
C3168      C3169   1.415       .  A
C3168      H3173   1.084       .  S
C3169      C3170   1.433       .  A
C3170      N3171   1.431       .  S
N3171      H3175   1.045       .  S
N3171      H3176   1.046       .  S
N3174      H3177   1.043       .  S
N3174      H3178   1.046       .  S
C3179      C3180   1.398       .  A
C3179      C3184   1.402       .  A
C3179      H3186   1.084       .  S
C3180      C3181   1.409       .  A
C3181      C3182   1.399       .  A
C3181      N3188   1.439       .  S
C3182      C3183   1.416       .  A
C3182      H3187   1.078       .  S
C3183      C3184   1.429       .  A
C3184      N3185   1.431       .  S
N3185      H3189   1.046       .  S
N3185      H3190   1.046       .  S
N3188      H3191   1.043       .  S
N3188      H3192   1.045       .  S
C3193      C3194   1.396       .  A
C3193      C3198   1.404       .  A
C3193      H3200   1.084       .  S
C3194      C3195   1.414       .  A
C3195      C3196   1.401       .  A
C3195      N3202   1.440       .  S
C3196      C3197   1.414       .  A
C3196      H3201   1.080       .  S
C3197      C3198   1.431       .  A
C3198      N3199   1.433       .  S
N3199      H3203   1.046       .  S
N3199      H3204   1.046       .  S
N3202      H3205   1.043       .  S
N3202      H3206   1.045       .  S
C3207      C3208   1.402       .  A
C3207      C3212   1.403       .  A
C3207      H3214   1.084       .  S
C3208      C3209   1.408       .  A
C3209      C3210   1.404       .  A
C3209      N3216   1.439       .  S
C3210      C3211   1.419       .  A
C3210      H3215   1.079       .  S
C3211      C3212   1.423       .  A
C3212      N3213   1.432       .  S
N3213      H3217   1.045       .  S
N3213      H3218   1.046       .  S
N3216      H3219   1.045       .  S
N3216      H3220   1.046       .  S
C3221      C3222   1.400       .  A
C3221      C3226   1.410       .  A
C3221      H3228   1.084       .  S
C3222      C3223   1.400       .  A
C3223      C3224   1.396       .  A
C3223      N3230   1.435       .  S
C3224      C3225   1.423       .  A
C3224      H3229   1.078       .  S
C3225      C3226   1.437       .  A
C3226      N3227   1.432       .  S
N3227      H3231   1.045       .  S
N3227      H3232   1.037       .  S
N3230      H3233   1.046       .  S
N3230      H3234   1.045       .  S
C3235      C3236   1.395       .  A
C3235      C3240   1.395       .  A
C3235      H3242   1.085       .  S
C3236      C3237   1.406       .  A
C3237      C3238   1.400       .  A
C3237      N3244   1.439       .  S
C3238      C3239   1.419       .  A
C3238      H3243   1.083       .  S
C3239      C3240   1.442       .  A
C3240      N3241   1.433       .  S
N3241      H3245   1.042       .  S
N3241      H3246   1.041       .  S
N3244      H3247   1.046       .  S
N3244      H3248   1.046       .  S
C3249      C3250   1.407       .  A
C3249      C3254   1.399       .  A
C3249      H3256   1.083       .  S
C3250      C3251   1.414       .  A
C3251      C3252   1.413       .  A
C3251      N3258   1.432       .  S
C3252      C3253   1.426       .  A
C3252      H3257   1.080       .  S
C3253      C3254   1.421       .  A
C3254      N3255   1.430       .  S
N3255      H3259   1.046       .  S
N3255      H3260   1.046       .  S
N3258      H3261   1.045       .  S
N3258      H3262   1.045       .  S
C3263      C3264   1.422       .  A
C3263      C3268   1.411       .  A
C3263      H3270   1.079       .  S
C3264      C3265   1.424       .  A
C3265      C3266   1.403       .  A
C3265      N3272   1.432       .  S
C3266      C3267   1.399       .  A
C3266      H3271   1.085       .  S
C3267      C3268   1.415       .  A
C3268      N3269   1.438       .  S
N3269      H3273   1.045       .  S
N3269      H3274   1.043       .  S
N3272      H3275   1.046       .  S
N3272      H3276   1.046       .  S
C3277      C3278   1.389       .  A
C3277      C3282   1.401       .  A
C3277      H3284   1.084       .  S
C3278      C3279   1.411       .  A
C3279      C3280   1.399       .  A
C3279      N3286   1.433       .  S
C3280      C3281   1.411       .  A
C3280      H3285   1.082       .  S
C3281      C3282   1.438       .  A
C3282      N3283   1.433       .  S
N3283      H3287   1.046       .  S
N3283      H3288   1.045       .  S
N3286      H3289   1.046       .  S
N3286      H3290   1.045       .  S
C3291      C3292   1.392       .  A
C3291      C3296   1.400       .  A
C3291      H3298   1.085       .  S
C3292      C3293   1.411       .  A
C3293      C3294   1.401       .  A
C3293      N3300   1.439       .  S
C3294      C3295   1.420       .  A
C3294      H3299   1.083       .  S
C3295      C3296   1.433       .  A
C3296      N3297   1.431       .  S
N3297      H3301   1.046       .  S
N3297      H3302   1.046       .  S
N3300      H3303   1.043       .  S
N3300      H3304   1.046       .  S
C3305      C3306   1.403       .  A
C3305      C3310   1.408       .  A
C3305      H3312   1.084       .  S
C3306      C3307   1.417       .  A
C3307      C3308   1.390       .  A
C3307      N3314   1.434       .  S
C3308      C3309   1.414       .  A
C3308      H3313   1.082       .  S
C3309      C3310   1.429       .  A
C3310      N3311   1.432       .  S
N3311      H3315   1.045       .  S
N3311      H3316   1.046       .  S
N3314      H3317   1.046   1_554  S
N3314      H3318   1.044       .  S
C3319      C3320   1.405       .  A
C3319      C3324   1.407       .  A
C3319      H3326   1.084       .  S
C3320      C3321   1.416       .  A
C3321      C3322   1.390       .  A
C3321      N3328   1.433       .  S
C3322      C3323   1.414       .  A
C3322      H3327   1.083       .  S
C3323      C3324   1.426       .  A
C3324      N3325   1.430       .  S
N3325      H3329   1.046       .  S
N3325      H3330   1.045       .  S
N3328      H3331   1.046       .  S
N3328      H3332   1.045       .  S
C3333      C3334   1.397       .  A
C3333      C3338   1.413       .  A
C3333      H3340   1.084       .  S
C3334      C3335   1.409       .  A
C3335      C3336   1.400       .  A
C3335      N3342   1.441       .  S
C3336      C3337   1.422       .  A
C3336      H3341   1.079       .  S
C3337      C3338   1.444       .  A
C3338      N3339   1.439       .  S
N3339      H3343   1.044       .  S
N3339      H3344   1.035       .  S
N3342      H3345   1.044       .  S
N3342      H3346   1.045       .  S
C3347      C3348   1.398       .  A
C3347      C3352   1.404       .  A
C3347      H3354   1.084       .  S
C3348      C3349   1.411       .  A
C3349      C3350   1.404       .  A
C3349      N3356   1.439       .  S
C3350      C3351   1.414       .  A
C3350      H3355   1.078       .  S
C3351      C3352   1.426       .  A
C3352      N3353   1.433       .  S
N3353      H3357   1.045       .  S
N3353      H3358   1.045       .  S
N3356      H3359   1.046       .  S
N3356      H3360   1.045       .  S
C3361      C3362   1.396       .  A
C3361      C3366   1.405       .  A
C3361      H3368   1.084       .  S
C3362      C3363   1.413       .  A
C3363      C3364   1.396       .  A
C3363      N3370   1.434       .  S
C3364      C3365   1.410       .  A
C3364      H3369   1.079       .  S
C3365      C3366   1.430       .  A
C3366      N3367   1.431       .  S
N3367      H3371   1.046       .  S
N3367      H3372   1.046       .  S
N3370      H3373   1.046       .  S
N3370      H3374   1.046       .  S
C3375      C3376   1.407       .  A
C3375      C3380   1.401       .  A
C3375      H3382   1.084       .  S
C3376      C3377   1.410       .  A
C3377      C3378   1.400       .  A
C3377      N3384   1.432       .  S
C3378      C3379   1.423       .  A
C3378      H3383   1.083       .  S
C3379      C3380   1.423       .  A
C3380      N3381   1.432       .  S
N3381      H3385   1.045       .  S
N3381      H3386   1.046       .  S
N3384      H3387   1.046       .  S
N3384      H3388   1.045       .  S
C3389      C3390   1.398       .  A
C3389      C3394   1.411       .  A
C3389      H3396   1.084       .  S
C3390      C3391   1.404       .  A
C3391      C3392   1.392       .  A
C3391      N3398   1.442       .  S
C3392      C3393   1.425       .  A
C3392      H3397   1.078       .  S
C3393      C3394   1.440       .  A
C3394      N3395   1.438       .  S
N3395      H3399   1.046       .  S
N3395      H3400   1.035       .  S
N3398      H3401   1.043       .  S
N3398      H3402   1.046       .  S
C3403      C3404   1.398       .  A
C3403      C3408   1.406       .  A
C3403      H3410   1.084       .  S
C3404      C3405   1.407       .  A
C3405      C3406   1.391       .  A
C3405      N3412   1.435       .  S
C3406      C3407   1.422       .  A
C3406      H3411   1.078       .  S
C3407      C3408   1.436       .  A
C3408      N3409   1.430       .  S
N3409      H3413   1.039       .  S
N3409      H3414   1.042       .  S
N3412      H3415   1.046       .  S
N3412      H3416   1.044       .  S
C3417      C3418   1.398       .  A
C3417      C3422   1.403       .  A
C3417      H3424   1.084       .  S
C3418      C3419   1.411       .  A
C3419      C3420   1.409       .  A
C3419      N3426   1.439       .  S
C3420      C3421   1.416       .  A
C3420      H3425   1.076       .  S
C3421      C3422   1.426       .  A
C3422      N3423   1.432       .  S
N3423      H3427   1.045       .  S
N3423      H3428   1.046       .  S
N3426      H3429   1.046       .  S
N3426      H3430   1.045       .  S
C3431      C3432   1.398       .  A
C3431      C3436   1.401       .  A
C3431      H3438   1.085       .  S
C3432      C3433   1.411       .  A
C3433      C3434   1.409       .  A
C3433      N3440   1.438       .  S
C3434      C3435   1.420       .  A
C3434      H3439   1.084       .  S
C3435      C3436   1.432       .  A
C3436      N3437   1.432       .  S
N3437      H3441   1.046       .  S
N3437      H3442   1.046       .  S
N3440      H3443   1.043       .  S
N3440      H3444   1.046       .  S
C3445      C3446   1.426       .  A
C3445      C3450   1.399       .  A
C3445      H3452   1.082       .  S
C3446      C3447   1.439       .  A
C3447      C3448   1.398       .  A
C3447      N3454   1.439       .  S
C3448      C3449   1.402       .  A
C3448      H3453   1.085       .  S
C3449      C3450   1.405       .  A
C3450      N3451   1.432       .  S
N3451      H3455   1.045       .  S
N3451      H3456   1.045       .  S
N3454      H3457   1.033       .  S
N3454      H3458   1.046       .  S
C3459      C3460   1.398       .  A
C3459      C3464   1.409       .  A
C3459      H3466   1.084       .  S
C3460      C3461   1.408       .  A
C3461      C3462   1.398       .  A
C3461      N3468   1.433       .  S
C3462      C3463   1.416       .  A
C3462      H3467   1.084       .  S
C3463      C3464   1.433       .  A
C3464      N3465   1.431       .  S
N3465      H3469   1.046       .  S
N3465      H3470   1.046       .  S
N3468      H3471   1.046       .  S
N3468      H3472   1.046       .  S
