geometry optimzed in LAMMPS
_audit_creation_date              2020-11-30 
_audit_creation_method            'lammps2cif' 
_symmetry_space_group_name_H-M    'P1' 
_symmetry_Int_Tables_number       1 
_symmetry_cell_setting            triclinic 
loop_ 
_symmetry_equiv_pos_as_xyz 
  x,y,z 
_cell_length_a                    62.50878778 
_cell_length_b                    62.533365532836534 
_cell_length_c                    62.47806852509929 
_cell_angle_alpha                 89.95868317164809 
_cell_angle_beta                  90.2506760804222 
_cell_angle_gamma                 89.92959365444014 
loop_ 
_atom_site_label 
_atom_site_type_symbol 
_atom_site_fract_x 
_atom_site_fract_y 
_atom_site_fract_z 
_atom_site_charge 
Fe1        Fe  0.84731596  0.29996402  0.85193478     1.65800
Fe2        Fe  0.88702188  0.28908025  0.88650861     1.73200
Fe3        Fe  0.87569827  0.34096093  0.87391027     1.54400
O4          O  0.87324786  0.34684485  0.84092185    -0.80200
O5          O  0.87744536  0.30261451  0.91474702    -0.78500
O6          O  0.85881661  0.31742112  0.82669531    -0.82700
O7          O  0.82623434  0.32382660  0.86011915    -0.77600
O8          O  0.90833029  0.33732587  0.86969659    -0.79400
O9          O  0.86264014  0.26650908  0.88902535    -0.82100
C10         C  0.82662022  0.34095379  0.87094658     0.98700
C11         C  0.86736751  0.33572360  0.82480329     1.06100
O12         O  0.87001680  0.31021405  0.87070281    -1.11100
O13         O  0.89703261  0.27481909  0.85852907    -0.73500
O14         O  0.86551902  0.27434852  0.84150508    -0.77000
O15         O  0.84379949  0.34887096  0.87833865    -0.77700
C16         C  0.88465600  0.26779786  0.84396763     0.97600
O17         O  0.83360019  0.28161427  0.87547438    -0.75700
O18         O  0.91476355  0.30706818  0.88701561    -0.80800
C19         C  0.87684230  0.32213264  0.92048506     1.00200
C20         C  0.92118321  0.32420002  0.87834534     1.06100
O21         O  0.87848298  0.33772457  0.90729598    -0.76500
C22         C  0.84263044  0.26652295  0.88554559     1.04400
Fe23       Fe  0.70117404  0.14666217  0.84471983     1.65800
Fe24       Fe  0.71259885  0.10947995  0.88167957     1.73200
Fe25       Fe  0.66049969  0.12308646  0.87169713     1.54400
O26         O  0.65567967  0.15665262  0.87098251    -0.80200
O27         O  0.69739174  0.08184674  0.87314185    -0.78500
O28         O  0.68665168  0.17125091  0.86053479    -0.82700
O29         O  0.67519212  0.14362610  0.82463936    -0.77600
O30         O  0.66435068  0.12510907  0.90491274    -0.79400
O31         O  0.73210070  0.10582080  0.85481287    -0.82100
C32         C  0.65944368  0.13105350  0.82342514     0.98700
C33         C  0.66773260  0.17292862  0.86771127     1.06100
O34         O  0.69123897  0.12643477  0.86625015    -1.11100
O35         O  0.72971562  0.13602417  0.89137317    -0.73500
O36         O  0.72949183  0.15356839  0.86051601    -0.77000
O37         O  0.65303065  0.12017446  0.83928301    -0.77700
C38         C  0.73734511  0.15004322  0.87892516     0.97600
O39         O  0.71593496  0.12275245  0.82785134    -0.75700
O40         O  0.69641346  0.11077468  0.91051059    -0.80800
C41         C  0.67803043  0.07612715  0.87100319     1.00200
C42         C  0.67883026  0.11811961  0.91751969     1.06100
O43         O  0.66248570  0.08939006  0.87227055    -0.76500
C44         C  0.73028359  0.11025634  0.83497801     1.04400
Fe45       Fe  0.85429567  0.15842341  0.69477345     1.65800
Fe46       Fe  0.88833797  0.11826884  0.70767664     1.73200
Fe47       Fe  0.87847921  0.13033047  0.65457501     1.54400
O48         O  0.84577757  0.13124814  0.64742893    -0.80200
O49         O  0.91766110  0.12388268  0.69371164    -0.78500
O50         O  0.83038290  0.14740444  0.67525374    -0.82700
O51         O  0.86446574  0.17981962  0.67238176    -0.77600
O52         O  0.87544099  0.09727368  0.65756682    -0.79400
O53         O  0.89427149  0.14377485  0.72800406    -0.82100
C54         C  0.87511187  0.17984332  0.65524922     0.98700
C55         C  0.82927806  0.13764251  0.65750563     1.06100
O56         O  0.87376141  0.13563871  0.68556453    -1.11100
O57         O  0.86011635  0.11097269  0.72365192    -0.73500
O58         O  0.84105675  0.14049602  0.71877535    -0.77000
O59         O  0.88202873  0.16271565  0.64676690    -0.77700
C60         C  0.84366081  0.12232536  0.72733673     0.97600
O61         O  0.87627718  0.17167152  0.71521946    -0.75700
O62         O  0.88477327  0.09013370  0.69115994    -0.80800
C63         C  0.92429491  0.12710109  0.67474915     1.00200
C64         C  0.87934988  0.08410700  0.67258612     1.06100
O65         O  0.91167322  0.12878865  0.65871454    -0.76500
C66         C  0.88943662  0.16347389  0.72831644     1.04400
Fe67       Fe  0.65971312  0.35477093  0.80425320     1.65800
Fe68       Fe  0.61767756  0.38633964  0.79295978     1.73200
Fe69       Fe  0.63018084  0.37489906  0.84538598     1.54400
O70         O  0.63420280  0.34199905  0.85103536    -0.80200
O71         O  0.62401826  0.41522121  0.80731457    -0.78500
O72         O  0.64976584  0.32885642  0.82169459    -0.82700
O73         O  0.68029735  0.36451862  0.82786087    -0.77600
O74         O  0.59769868  0.36916522  0.84217930    -0.79400
O75         O  0.64211023  0.39223730  0.77144075    -0.82100
C76         C  0.67944755  0.37537285  0.84489369     0.98700
C77         C  0.64092587  0.32633190  0.83978353     1.06100
O78         O  0.63572733  0.37189005  0.81437819    -1.11100
O79         O  0.61058748  0.35806842  0.77703952    -0.73500
O80         O  0.64272757  0.34280314  0.77845186    -0.77000
O81         O  0.66192574  0.38126130  0.85318367    -0.77700
C82         C  0.62398492  0.34418140  0.77059990     0.97600
O83         O  0.67174386  0.37935749  0.78626366    -0.75700
O84         O  0.59007978  0.38315295  0.81036925    -0.80800
C85         C  0.62538243  0.42112833  0.82676269     1.00200
C86         C  0.58436796  0.37556309  0.82823259     1.06100
O87         O  0.62563970  0.40805922  0.84250605    -0.76500
C88         C  0.66225418  0.39013280  0.77197103     1.04400
Fe89       Fe  0.80231971  0.34872655  0.64793582     1.65800
Fe90       Fe  0.78958828  0.38991806  0.61485683     1.73200
Fe91       Fe  0.84270888  0.37711782  0.62416963     1.54400
O92         O  0.85010439  0.37600209  0.65682601    -0.80200
O93         O  0.80398616  0.38630231  0.58567872    -0.78500
O94         O  0.82306311  0.35807459  0.67164392    -0.82700
O95         O  0.82357497  0.32704916  0.63572019    -0.77600
O96         O  0.84016526  0.41029260  0.62694217    -0.79400
O97         O  0.76959793  0.36452349  0.60686274    -0.82100
C98         C  0.84105247  0.32739732  0.62561129     0.98700
C99         C  0.84051037  0.36831230  0.67304201     1.06100
O100        O  0.81160855  0.37198257  0.62897754    -1.11100
O101        O  0.77278606  0.39560642  0.64272271    -0.73500
O102        O  0.77947962  0.36702206  0.66274857    -0.77000
O103        O  0.85018221  0.34476363  0.62037248    -0.77700
C104        C  0.76992684  0.38463597  0.65952329     0.97600
O105        O  0.78043834  0.33686220  0.62641640    -0.75700
O106        O  0.80601015  0.41782487  0.62051250    -0.80800
C107        C  0.82264099  0.38228444  0.57880530     1.00200
C108        C  0.82496309  0.42365744  0.62477719     1.06100
O109        O  0.83850227  0.37871673  0.59117071    -0.76500
C110        C  0.76839966  0.34496838  0.61220375     1.04400
Fe111      Fe  0.65548965  0.20226744  0.64727364     1.65800
Fe112      Fe  0.61515548  0.21332535  0.61319071     1.73200
Fe113      Fe  0.62946012  0.16153129  0.62302808     1.54400
O114        O  0.66247133  0.15532127  0.62370183    -0.80200
O115        O  0.58797157  0.19844955  0.62391094    -0.78500
O116        O  0.67862835  0.18640432  0.63039646    -0.82700
O117        O  0.65256408  0.17670407  0.66807510    -0.77600
O118        O  0.63142736  0.16519855  0.59009975    -0.79400
O119        O  0.61339220  0.23348851  0.63986926    -0.82100
C120        C  0.63983378  0.16110374  0.67044787     0.98700
C121        C  0.67928780  0.16680250  0.62515813     1.06100
O122        O  0.63332560  0.19230794  0.62772701    -1.11100
O123        O  0.64101975  0.23020473  0.60116992    -0.73500
O124        O  0.66216039  0.22962208  0.62986921    -0.77000
O125        O  0.62718943  0.15513358  0.65563338    -0.77700
C126        C  0.65679261  0.23730295  0.61183105     0.97600
O127        O  0.63355222  0.21867146  0.66532961    -0.75700
O128        O  0.61425704  0.19606658  0.58474883    -0.80800
C129        C  0.58255952  0.17889924  0.62422069     1.00200
C130        C  0.62260215  0.17885446  0.57780862     1.06100
O131        O  0.59601744  0.16373881  0.62192291    -0.76500
C132        C  0.61978684  0.23235541  0.65924098     1.04400
Fe133      Fe  0.15864047  0.14907457  0.69294434     1.65800
Fe134      Fe  0.12091415  0.11397630  0.70689204     1.73200
Fe135      Fe  0.13005492  0.12438589  0.65428449     1.54400
O136        O  0.13350038  0.15708111  0.64687503    -0.80200
O137        O  0.12840601  0.08501700  0.69358665    -0.78500
O138        O  0.14297686  0.17322048  0.67742349    -0.82700
O139        O  0.17756430  0.14347910  0.66655927    -0.77600
O140        O  0.09761675  0.12991288  0.65863221    -0.79400
O141        O  0.14787863  0.11085677  0.72648754    -0.82100
C142        C  0.17811013  0.12936373  0.65205977     0.98700
C143        C  0.13629612  0.17386797  0.65822571     1.06100
O144        O  0.13641947  0.12906060  0.68457299    -1.11100
O145        O  0.11220431  0.14212400  0.72177919    -0.73500
O146        O  0.14375519  0.15830052  0.72101453    -0.77000
O147        O  0.16194082  0.11812121  0.64714826    -0.77700
C148        C  0.12502711  0.15632257  0.72847790     0.97600
O149        O  0.17501103  0.12550914  0.70881935    -0.75700
O150        O  0.09206977  0.11491492  0.69045357    -0.80800
C151        C  0.12744973  0.07860959  0.67433897     1.00200
C152        C  0.08513952  0.12290518  0.67303430     1.06100
O153        O  0.12583727  0.09140053  0.65847214    -0.76500
C154        C  0.16782501  0.11419172  0.72401398     1.04400
Fe155      Fe  0.30719641  0.15755162  0.85425455     1.65800
Fe156      Fe  0.29112581  0.11610068  0.88541921     1.73200
Fe157      Fe  0.34508383  0.12537359  0.87747000     1.54400
O158        O  0.35245906  0.12589695  0.84477138    -0.80200
O159        O  0.30574729  0.11734613  0.91484800    -0.78500
O160        O  0.32892715  0.14914377  0.83120432    -0.82700
O161        O  0.32824385  0.17734961  0.86943712    -0.77600
O162        O  0.34014617  0.09241810  0.87491984    -0.79400
O163        O  0.27284048  0.14235213  0.89448785    -0.82100
C164        C  0.34638867  0.17520950  0.87816254     0.98700
C165        C  0.34463707  0.13649330  0.82914155     1.06100
O166        O  0.31450437  0.13292023  0.87237722    -1.11100
O167        O  0.27428706  0.11319083  0.85704532    -0.73500
O168        O  0.28496616  0.14060117  0.83712588    -0.77000
O169        O  0.35511606  0.15707041  0.88111050    -0.77700
C170        C  0.27360331  0.12409522  0.83989176     0.97600
O171        O  0.28445640  0.16932835  0.87460502    -0.75700
O172        O  0.30523149  0.08722778  0.87861732    -0.80800
C173        C  0.32428336  0.12103943  0.92238814     1.00200
C174        C  0.32395740  0.08014428  0.87560549     1.06100
O175        O  0.34047189  0.12434926  0.91048430    -0.76500
C176        C  0.27224754  0.16180738  0.88880773     1.04400
Fe177      Fe  0.15113940  0.30519354  0.84216012     1.65800
Fe178      Fe  0.11649976  0.29097763  0.88067440     1.73200
Fe179      Fe  0.12747505  0.34406485  0.87219434     1.54400
O180        O  0.16016146  0.35145995  0.86986057    -0.80200
O181        O  0.08756210  0.30496073  0.87350818    -0.78500
O182        O  0.17545281  0.32295946  0.85482009    -0.82700
O183        O  0.14159664  0.32954256  0.82220774    -0.77600
O184        O  0.13230265  0.33897763  0.90461428    -0.79400
O185        O  0.11251221  0.27089961  0.85434289    -0.82100
C186        C  0.12974223  0.34596771  0.82314863     0.98700
C187        C  0.17663084  0.34097612  0.86396892     1.06100
O188        O  0.13168774  0.31354963  0.86502667    -1.11100
O189        O  0.14470096  0.27558950  0.88905468    -0.73500
O190        O  0.16331033  0.27950767  0.85910360    -0.77000
O191        O  0.12214834  0.35298683  0.84059521    -0.77700
C192        C  0.16084298  0.27128271  0.87752505     0.97600
O193        O  0.12879159  0.28654058  0.82712858    -0.75700
O194        O  0.11783976  0.30693235  0.90952378    -0.80800
C195        C  0.08134554  0.32433168  0.87394202     1.00200
C196        C  0.12543254  0.32428181  0.91677563     1.06100
O197        O  0.09429436  0.34007550  0.87537258    -0.76500
C198        C  0.11690266  0.27200297  0.83454778     1.04400
Fe199      Fe  0.35650376  0.34372593  0.79995171     1.65800
Fe200      Fe  0.39155045  0.38327525  0.79050893     1.73200
Fe201      Fe  0.37843913  0.37025979  0.84225696     1.54400
O202        O  0.34520954  0.36914703  0.84690295    -0.80200
O203        O  0.41972838  0.37512993  0.80538227    -0.78500
O204        O  0.33120391  0.35598913  0.81667072    -0.82700
O205        O  0.36298238  0.32204921  0.82366935    -0.77600
O206        O  0.37589863  0.40320448  0.84009742    -0.79400
O207        O  0.39648558  0.35847879  0.76911079    -0.82100
C208        C  0.37361687  0.32130641  0.84089694     0.98700
C209        C  0.32917562  0.36430276  0.83509657     1.06100
O210        O  0.37546887  0.36587180  0.81109121    -1.11100
O211        O  0.36421809  0.39268635  0.77401692    -0.73500
O212        O  0.34692673  0.36167036  0.77398344    -0.77000
O213        O  0.38169384  0.33791372  0.84927761    -0.77700
C214        C  0.34965768  0.38045205  0.76685481     0.97600
O215        O  0.38054818  0.32982399  0.78256700    -0.75700
O216        O  0.38954109  0.41072863  0.80826836    -0.80800
C217        C  0.42520898  0.37228599  0.82480407     1.00200
C218        C  0.38266443  0.41649657  0.82638162     1.06100
O219        O  0.41179159  0.37173390  0.84016014    -0.76500
C220        C  0.39284266  0.33853066  0.76906906     1.04400
Fe221      Fe  0.19772117  0.35418417  0.65943787     1.65800
Fe222      Fe  0.21071411  0.38674162  0.61853201     1.73200
Fe223      Fe  0.15786042  0.37529361  0.62816614     1.54400
O224        O  0.15177811  0.34250952  0.63043835    -0.80200
O225        O  0.19618328  0.41558437  0.62472022    -0.78500
O226        O  0.17937988  0.32916764  0.64883432    -0.82700
O227        O  0.17434935  0.36526435  0.67934245    -0.77600
O228        O  0.16214856  0.37082343  0.59556917    -0.79400
O229        O  0.23134459  0.39219214  0.64404498    -0.82100
C230        C  0.15719211  0.37587556  0.67768183     0.98700
C231        C  0.16228265  0.32677530  0.63809389     1.06100
O232        O  0.18864938  0.37199834  0.63529122    -1.11100
O233        O  0.22671278  0.35851042  0.61169014    -0.73500
O234        O  0.22287239  0.34122409  0.64263953    -0.77000
O235        O  0.14895378  0.38079384  0.65974708    -0.77700
C236        C  0.23161094  0.34338228  0.62444400     0.97600
O237        O  0.21712193  0.37718745  0.67273436    -0.75700
O238        O  0.19447375  0.38408067  0.58987897    -0.80800
C239        C  0.17666483  0.42133920  0.62551173     1.00200
C240        C  0.17671190  0.37712087  0.58299315     1.06100
O241        O  0.16105438  0.40824226  0.62499117    -0.76500
C242        C  0.23129069  0.38862686  0.66401321     1.04400
Fe243      Fe  0.35302048  0.20106786  0.65240384     1.65800
Fe244      Fe  0.38771027  0.21144351  0.61299300     1.73200
Fe245      Fe  0.37725981  0.16003056  0.62747547     1.54400
O246        O  0.37621088  0.15427864  0.66084409    -0.80200
O247        O  0.37644446  0.19693407  0.58592752    -0.78500
O248        O  0.36968068  0.18581419  0.67614471    -0.82700
O249        O  0.33217176  0.17557737  0.64958040    -0.77600
O250        O  0.41005290  0.16341664  0.63027240    -0.79400
O251        O  0.36145433  0.23231345  0.61123006    -0.82100
C252        C  0.32970645  0.16037926  0.63637339     0.98700
C253        C  0.37492466  0.16624680  0.67741576     1.06100
O254        O  0.37281621  0.19074706  0.63094258    -1.11100
O255        O  0.39996516  0.22756338  0.63906475    -0.73500
O256        O  0.37038634  0.22848138  0.65867695    -0.77000
O257        O  0.34472713  0.15419430  0.62424416    -0.77700
C258        C  0.38889793  0.23534555  0.65409741     0.97600
O259        O  0.33539842  0.21674938  0.62968334    -0.75700
O260        O  0.41586071  0.19361280  0.61222013    -0.80800
C261        C  0.37582645  0.17740974  0.58051703     1.00200
C262        C  0.42257792  0.17669358  0.62139866     1.06100
O263        O  0.37862082  0.16216218  0.59386883    -0.76500
C264        C  0.34188536  0.23091939  0.61674050     1.04400
Fe265      Fe  0.30182882  0.85092871  0.83900424     1.65800
Fe266      Fe  0.28943529  0.88238787  0.88157440     1.73200
Fe267      Fe  0.34242618  0.87341885  0.86837831     1.54400
O268        O  0.34948427  0.84064980  0.86653938    -0.80200
O269        O  0.30461501  0.91171272  0.88023292    -0.78500
O270        O  0.32306822  0.82706985  0.84663940    -0.82700
O271        O  0.32246669  0.86466719  0.81779328    -0.77600
O272        O  0.33989675  0.87004896  0.90147339    -0.79400
O273        O  0.27004683  0.89241573  0.85635216    -0.82100
C274        C  0.34037166  0.87401216  0.81866185     0.98700
C275        C  0.34018017  0.82495874  0.85739929     1.06100
O276        O  0.31127811  0.86893038  0.86304395    -1.11100
O277        O  0.27168708  0.85452282  0.88529323    -0.73500
O278        O  0.27968777  0.83480798  0.85696402    -0.77000
O279        O  0.34989096  0.87782094  0.83623411    -0.77700
C280        C  0.26945625  0.83766640  0.87417434     0.97600
O281        O  0.27935248  0.87247403  0.82847207    -0.75700
O282        O  0.30542880  0.87429765  0.90924735    -0.80800
C283        C  0.32313254  0.91873242  0.87565152     1.00200
C284        C  0.32460488  0.87060309  0.91480432     1.06100
O285        O  0.33859280  0.90647071  0.87056863    -0.76500
C286        C  0.26811862  0.88708557  0.83683605     1.04400
Fe287      Fe  0.14842315  0.69438760  0.84449179     1.65800
Fe288      Fe  0.11220154  0.70724688  0.88261574     1.73200
Fe289      Fe  0.12367698  0.65430206  0.87198216     1.54400
O290        O  0.12401390  0.64583110  0.83942938    -0.80200
O291        O  0.12031777  0.69346186  0.91132408    -0.78500
O292        O  0.13509275  0.67475698  0.82188635    -0.82700
O293        O  0.17084233  0.67193579  0.85315180    -0.77600
O294        O  0.09085849  0.65704658  0.86951296    -0.79400
O295        O  0.13831246  0.72742777  0.88652024    -0.82100
C296        C  0.17238579  0.65631538  0.86599893     0.98700
C297        C  0.12742641  0.65601428  0.82209985     1.06100
O298        O  0.12801727  0.68528395  0.86636889    -1.11100
O299        O  0.10238949  0.72387828  0.85564872    -0.73500
O300        O  0.12902978  0.71840146  0.83272708    -0.77000
O301        O  0.15624375  0.64826802  0.87528068    -0.77700
C302        C  0.11178895  0.72757220  0.83809879     0.97600
O303        O  0.16381140  0.71495847  0.86508328    -0.75700
O304        O  0.08407913  0.69009925  0.88107430    -0.80800
C305        C  0.12232872  0.67436001  0.91781973     1.00200
C306        C  0.07794711  0.67167430  0.87508933     1.06100
O307        O  0.12238638  0.65835322  0.90521981    -0.76500
C308        C  0.15737581  0.72752787  0.87960851     1.04400
Fe309      Fe  0.15275259  0.84856145  0.69405630     1.65800
Fe310      Fe  0.11370626  0.88301898  0.70699357     1.73200
Fe311      Fe  0.12552862  0.87339079  0.65454427     1.54400
O312        O  0.15832857  0.87217071  0.64727338    -0.80200
O313        O  0.08568841  0.87363005  0.69273457    -0.78500
O314        O  0.17534051  0.86594450  0.67816151    -0.82700
O315        O  0.14888405  0.82836098  0.66814923    -0.77600
O316        O  0.12831193  0.90616004  0.65821651    -0.79400
O317        O  0.11178687  0.85580342  0.72642447    -0.82100
C318        C  0.13468741  0.82595438  0.65380614     0.98700
C319        C  0.17538255  0.87121382  0.65856247     1.06100
O320        O  0.13057945  0.86849157  0.68515705    -1.11100
O321        O  0.14029706  0.89391889  0.72363181    -0.73500
O322        O  0.16052411  0.86488897  0.72161877    -0.77000
O323        O  0.12199170  0.84093404  0.64853769    -0.77700
C324        C  0.15587326  0.88264511  0.73016381     0.97600
O325        O  0.13107306  0.83047772  0.71056040    -0.75700
O326        O  0.11350597  0.91167983  0.69021706    -0.80800
C327        C  0.07943533  0.87336008  0.67339998     1.00200
C328        C  0.12092293  0.91853969  0.67255232     1.06100
O329        O  0.09229490  0.87517601  0.65774871    -0.76500
C330        C  0.11785337  0.83638721  0.72475753     1.04400
Fe331      Fe  0.34073565  0.64327484  0.79904902     1.65800
Fe332      Fe  0.37947472  0.60792517  0.78761662     1.73200
Fe333      Fe  0.37055251  0.62227018  0.83974362     1.54400
O334        O  0.36909170  0.65550031  0.84416096    -0.80200
O335        O  0.37206196  0.58021742  0.80325694    -0.78500
O336        O  0.35425020  0.66898888  0.81443620    -0.82700
O337        O  0.32080207  0.63676511  0.82415435    -0.77600
O338        O  0.40325156  0.62568270  0.83493039    -0.79400
O339        O  0.35320518  0.60316699  0.76745189    -0.82100
C340        C  0.32144934  0.62584748  0.84118142     0.98700
C341        C  0.36376788  0.67129470  0.83229174     1.06100
O342        O  0.36366974  0.62450307  0.80898994    -1.11100
O343        O  0.38797002  0.63500086  0.77084015    -0.73500
O344        O  0.35689374  0.65237974  0.77181340    -0.77000
O345        O  0.33874803  0.61834131  0.84880353    -0.77700
C346        C  0.37546244  0.64957021  0.76418720     0.97600
O347        O  0.32555862  0.61894502  0.78304943    -0.75700
O348        O  0.40830916  0.60961730  0.80367610    -0.80800
C349        C  0.37168412  0.57511741  0.82295245     1.00200
C350        C  0.41547476  0.61782624  0.82079218     1.06100
O351        O  0.37277274  0.58888698  0.83802582    -0.76500
C352        C  0.33326597  0.60683553  0.76880932     1.04400
Fe353      Fe  0.35290441  0.79956505  0.65550159     1.65800
Fe354      Fe  0.38433262  0.78626838  0.61422106     1.73200
Fe355      Fe  0.37421913  0.83908496  0.62493815     1.54400
O356        O  0.34146596  0.84587773  0.62818012    -0.80200
O357        O  0.41365178  0.79937512  0.62098942    -0.78500
O358        O  0.32782966  0.81768855  0.64514504    -0.82700
O359        O  0.36308246  0.82326859  0.67558791    -0.77600
O360        O  0.36880298  0.83495440  0.59244241    -0.79400
O361        O  0.38860789  0.76478372  0.63940934    -0.82100
C362        C  0.37360185  0.84045366  0.67422051     0.98700
C363        C  0.32562605  0.83564135  0.63598408     1.06100
O364        O  0.37046099  0.80854016  0.63149441    -1.11100
O365        O  0.35517652  0.77251245  0.60659669    -0.73500
O366        O  0.33992167  0.77430949  0.63866566    -0.77000
O367        O  0.37993152  0.84797458  0.65649006    -0.77700
C368        C  0.34013676  0.76782066  0.61939993     0.97600
O369        O  0.37659732  0.78107782  0.66832613    -0.75700
O370        O  0.38289274  0.80309557  0.58585399    -0.80800
C371        C  0.42013440  0.81865529  0.62190444     1.00200
C372        C  0.37527815  0.82076942  0.57951297     1.06100
O373        O  0.40733997  0.83467563  0.62154549    -0.76500
C374        C  0.38649074  0.76585451  0.65956857     1.04400
Fe375      Fe  0.19055751  0.65338061  0.64800460     1.65800
Fe376      Fe  0.20513425  0.61681489  0.61166355     1.73200
Fe377      Fe  0.15220015  0.62538328  0.62183131     1.54400
O378        O  0.14453340  0.62679755  0.65468453    -0.80200
O379        O  0.19174212  0.62517341  0.58262707    -0.78500
O380        O  0.17417346  0.63767927  0.67149703    -0.82700
O381        O  0.16472952  0.67278892  0.64194271    -0.77600
O382        O  0.15699371  0.59291614  0.62576204    -0.79400
O383        O  0.22474358  0.64360872  0.60960980    -0.82100
C384        C  0.14953242  0.67332926  0.62852509     0.98700
C385        C  0.15542443  0.62993342  0.67178179     1.06100
O386        O  0.18248820  0.63182277  0.62704989    -1.11100
O387        O  0.21988924  0.60709555  0.63984572    -0.73500
O388        O  0.21770320  0.63743687  0.65797175    -0.77000
O389        O  0.14427041  0.65732169  0.61723399    -0.77700
C390        C  0.22492821  0.61862140  0.65580216     0.97600
O391        O  0.20754592  0.67032920  0.62558126    -0.75700
O392        O  0.18914189  0.58802995  0.61159023    -0.80800
C393        C  0.17247802  0.62500081  0.57595978     1.00200
C394        C  0.17178949  0.58074945  0.61908721     1.06100
O395        O  0.15656171  0.62311192  0.58858915    -0.76500
C396        C  0.22261463  0.66335811  0.61396973     1.04400
Fe397      Fe  0.84835506  0.84981773  0.69219405     1.65800
Fe398      Fe  0.88216162  0.88922671  0.70698158     1.73200
Fe399      Fe  0.87394672  0.87818877  0.65392050     1.54400
O400        O  0.87381120  0.84560478  0.64580735    -0.80200
O401        O  0.87364409  0.91768363  0.69266628    -0.78500
O402        O  0.86603785  0.82783119  0.67579977    -0.82700
O403        O  0.82843159  0.85451702  0.66616083    -0.77600
O404        O  0.90667197  0.87600045  0.65859277    -0.79400
O405        O  0.85435080  0.89125190  0.72518334    -0.82100
C406        C  0.82654997  0.86863279  0.65173136     0.98700
C407        C  0.87246047  0.82834888  0.65660101     1.06100
O408        O  0.86826159  0.87250664  0.68437279    -1.11100
O409        O  0.89220240  0.86254674  0.72403959    -0.73500
O410        O  0.86447853  0.84078792  0.71960338    -0.77000
O411        O  0.84164898  0.88120058  0.64678106    -0.77700
C412        C  0.88173271  0.84590808  0.72890402     0.97600
O413        O  0.82978609  0.87071053  0.70932056    -0.75700
O414        O  0.91147649  0.88883070  0.69151972    -0.80800
C415        C  0.87298179  0.92407165  0.67339092     1.00200
C416        C  0.91883117  0.88213107  0.67376895     1.06100
O417        O  0.87473698  0.91130799  0.65764651    -0.76500
C418        C  0.83526554  0.88429468  0.72341839     1.04400
Fe419      Fe  0.84711613  0.69976287  0.84852493     1.65800
Fe420      Fe  0.88719900  0.71092888  0.88264787     1.73200
Fe421      Fe  0.87226757  0.65925556  0.87419574     1.54400
O422        O  0.83917243  0.65314318  0.87305157    -0.80200
O423        O  0.91383552  0.69557998  0.87200838    -0.78500
O424        O  0.82355309  0.68416222  0.86497505    -0.82700
O425        O  0.85124407  0.67415150  0.82803898    -0.77600
O426        O  0.86918345  0.66421854  0.90671774    -0.79400
O427        O  0.88918618  0.73101874  0.85593288    -0.82100
C428        C  0.86399658  0.65839697  0.82648479     0.98700
C429        C  0.82254011  0.66486188  0.87106785     1.06100
O430        O  0.86888279  0.68992995  0.86847933    -1.11100
O431        O  0.86163775  0.72773903  0.89441191    -0.73500
O432        O  0.83985204  0.72682028  0.86610611    -0.77000
O433        O  0.87551324  0.65208890  0.84203581    -0.77700
C434        C  0.84523017  0.73404762  0.88431921     0.97600
O435        O  0.86903185  0.71623761  0.83065959    -0.75700
O436        O  0.88759640  0.69428139  0.91135048    -0.80800
C437        C  0.91915918  0.67601918  0.87223588     1.00200
C438        C  0.87756156  0.67826185  0.91879266     1.06100
O439        O  0.90569759  0.66114788  0.87574089    -0.76500
C440        C  0.88259946  0.73006416  0.83663978     1.04400
Fe441      Fe  0.69211708  0.83850291  0.85126661     1.65800
Fe442      Fe  0.70828630  0.87898513  0.88369762     1.73200
Fe443      Fe  0.65435638  0.87096836  0.87384252     1.54400
O444        O  0.64714295  0.87050734  0.84108449    -0.80200
O445        O  0.69333784  0.87695558  0.91290369    -0.78500
O446        O  0.67078092  0.84739668  0.82804450    -0.82700
O447        O  0.67033017  0.81894122  0.86546349    -0.77600
O448        O  0.66001694  0.90358050  0.87090383    -0.79400
O449        O  0.72580514  0.85226302  0.89240946    -0.82100
C450        C  0.65219253  0.82123444  0.87403127     0.98700
C451        C  0.65475062  0.85957417  0.82569956     1.06100
O452        O  0.68488840  0.86292675  0.86957684    -1.11100
O453        O  0.72584442  0.88223040  0.85567960    -0.73500
O454        O  0.71512667  0.85522514  0.83512656    -0.77000
O455        O  0.64383389  0.83945889  0.87738878    -0.77700
C456        C  0.72698007  0.87130895  0.83854064     0.97600
O457        O  0.71440562  0.82593151  0.87172176    -0.75700
O458        O  0.69465111  0.90834299  0.87758836    -0.80800
C459        C  0.67437793  0.87414599  0.91959255     1.00200
C460        C  0.67620789  0.91560539  0.87322356     1.06100
O461        O  0.65837342  0.87212385  0.90702211    -0.76500
C462        C  0.72655587  0.83298680  0.88627871     1.04400
Fe463      Fe  0.80723563  0.65001388  0.65739621     1.65800
Fe464      Fe  0.79323482  0.61928380  0.61500372     1.73200
Fe465      Fe  0.84610045  0.62927935  0.62621861     1.54400
O466        O  0.85080110  0.66209983  0.62455735    -0.80200
O467        O  0.81029636  0.59058913  0.61412799    -0.78500
O468        O  0.83092409  0.67233505  0.65214530    -0.82700
O469        O  0.82619176  0.63259080  0.67750698    -0.77600
O470        O  0.84181443  0.62888846  0.59302651    -0.79400
O471        O  0.77608491  0.60720579  0.64055672    -0.82100
C472        C  0.84591442  0.62844338  0.67611564     0.98700
C473        C  0.84492509  0.67617936  0.63799409     1.06100
O474        O  0.81543033  0.63279221  0.63276097    -1.11100
O475        O  0.77412969  0.64677653  0.61421089    -0.73500
O476        O  0.78722174  0.66855458  0.63922765    -0.77000
O477        O  0.85591304  0.62901583  0.65842958    -0.77700
C478        C  0.77438686  0.66470871  0.62393670     0.97600
O479        O  0.78242157  0.63061880  0.66652128    -0.75700
O480        O  0.80680572  0.62952387  0.58700430    -0.80800
C481        C  0.82852014  0.58391148  0.62066561     1.00200
C482        C  0.82588830  0.63028572  0.58037916     1.06100
O483        O  0.84314591  0.59637073  0.62747102    -0.76500
C484        C  0.77255066  0.61461385  0.65907055     1.04400
Fe485      Fe  0.64642509  0.65620745  0.79760124     1.65800
Fe486      Fe  0.61323585  0.61582920  0.78403365     1.73200
Fe487      Fe  0.62247357  0.62725018  0.83717563     1.54400
O488        O  0.65524006  0.63019066  0.84492802    -0.80200
O489        O  0.58390682  0.62099095  0.79755302    -0.78500
O490        O  0.67087785  0.64480527  0.81634521    -0.82700
O491        O  0.63673499  0.67675901  0.82107689    -0.77600
O492        O  0.62682892  0.59442188  0.83402821    -0.79400
O493        O  0.60730376  0.64175441  0.76391411    -0.82100
C494        C  0.62466951  0.67639378  0.83724847     0.98700
C495        C  0.67187390  0.63645153  0.83484941     1.06100
O496        O  0.62743705  0.63295558  0.80639458    -1.11100
O497        O  0.64140631  0.60895251  0.76813627    -0.73500
O498        O  0.65900958  0.63947075  0.77222823    -0.77000
O499        O  0.61698551  0.65916432  0.84466259    -0.77700
C500        C  0.65660776  0.62144383  0.76327342     0.97600
O501        O  0.62352901  0.66987096  0.77836925    -0.75700
O502        O  0.61662855  0.58753310  0.80067016    -0.80800
C503        C  0.57685055  0.62273661  0.81648404     1.00200
C504        C  0.62219893  0.58128865  0.81919944     1.06100
O505        O  0.58930166  0.62402482  0.83270432    -0.76500
C506        C  0.61101389  0.66171735  0.76464493     1.04400
Fe507      Fe  0.64875021  0.80617874  0.65159931     1.65800
Fe508      Fe  0.61530042  0.79295708  0.61201484     1.73200
Fe509      Fe  0.62540842  0.84524312  0.62306093     1.54400
O510        O  0.62628089  0.85318280  0.65598926    -0.80200
O511        O  0.62607517  0.80591050  0.58409260    -0.78500
O512        O  0.63032530  0.82213594  0.67327974    -0.82700
O513        O  0.66871906  0.83217337  0.64863205    -0.77600
O514        O  0.59251395  0.84189576  0.62563950    -0.79400
O515        O  0.64215701  0.77298247  0.61186342    -0.82100
C516        C  0.67243494  0.84534572  0.63370739     0.98700
C517        C  0.62586611  0.84193668  0.67310826     1.06100
O518        O  0.62965859  0.81487300  0.62875517    -1.11100
O519        O  0.60298972  0.77810925  0.63880925    -0.73500
O520        O  0.63242150  0.77843237  0.65870375    -0.77000
O521        O  0.65819097  0.85029987  0.61999279    -0.77700
C522        C  0.61407042  0.77107839  0.65427409     0.97600
O523        O  0.66759065  0.79002670  0.63029652    -0.75700
O524        O  0.58713673  0.81021382  0.60997910    -0.80800
C525        C  0.62615708  0.82497256  0.57720755     1.00200
C526        C  0.58024017  0.82764240  0.61782912     1.06100
O527        O  0.62394606  0.84102597  0.58964367    -0.76500
C528        C  0.66163511  0.77539068  0.61752899     1.04400
Fe529      Fe  0.84381904  0.31054896  0.15112928     1.65800
Fe530      Fe  0.88227779  0.29339668  0.11714966     1.73200
Fe531      Fe  0.87488330  0.34749594  0.12551664     1.54400
O532        O  0.84323945  0.35826283  0.12273452    -0.80200
O533        O  0.91199601  0.30709949  0.12075453    -0.78500
O534        O  0.82442949  0.33522115  0.14205035    -0.82700
O535        O  0.85768145  0.32883994  0.17439988    -0.77600
O536        O  0.87478031  0.34264515  0.09254503    -0.79400
O537        O  0.88828463  0.27736219  0.14553638    -0.82100
C538        C  0.86914665  0.34555226  0.17499618     0.98700
C539        C  0.82583314  0.35214680  0.13117152     1.06100
O540        O  0.86698059  0.31726919  0.13109975    -1.11100
O541        O  0.85456992  0.27551613  0.11187941    -0.73500
O542        O  0.82803302  0.29142322  0.12947829    -0.77000
O543        O  0.87585985  0.35495345  0.15818528    -0.77700
C544        C  0.83492996  0.27705145  0.11695925     0.97600
O545        O  0.85929420  0.28485366  0.16422806    -0.75700
O546        O  0.87849595  0.30733263  0.08745988    -0.80800
C547        C  0.91963920  0.32538587  0.12492109     1.00200
C548        C  0.87637216  0.32632621  0.08043155     1.06100
O549        O  0.90777409  0.34172242  0.12737061    -0.76500
C550        C  0.87665133  0.27477601  0.16188618     1.04400
Fe551      Fe  0.80598855  0.34856369  0.34575865     1.65800
Fe552      Fe  0.78990342  0.38477128  0.38221229     1.73200
Fe553      Fe  0.84355522  0.37637095  0.37337921     1.54400
O554        O  0.85194493  0.34419346  0.37696149    -0.80200
O555        O  0.80504441  0.41421516  0.38092645    -0.78500
O556        O  0.83160488  0.32902991  0.35209377    -0.82700
O557        O  0.82297827  0.36476793  0.32303442    -0.77600
O558        O  0.83876066  0.37741191  0.40626351    -0.79400
O559        O  0.77390855  0.39341727  0.35442294    -0.82100
C560        C  0.84155808  0.37291450  0.32355068     0.98700
C561        C  0.84689914  0.32828394  0.36536716     1.06100
O562        O  0.81323247  0.36999504  0.36723709    -1.11100
O563        O  0.77133674  0.35704857  0.38500824    -0.73500
O564        O  0.78830057  0.33117363  0.36729563    -0.77000
O565        O  0.85183239  0.37610859  0.34094387    -0.77700
C566        C  0.77342556  0.33750680  0.37954408     0.97600
O567        O  0.77912238  0.36415291  0.33529462    -0.75700
O568        O  0.80344268  0.37781498  0.41141728    -0.80800
C569        C  0.82312043  0.42141022  0.37508434     1.00200
C570        C  0.82250901  0.37669626  0.41844109     1.06100
O571        O  0.83875456  0.40917188  0.37065552    -0.76500
C572        C  0.76949337  0.38162888  0.33853846     1.04400
Fe573      Fe  0.84885836  0.15661111  0.30758015     1.65800
Fe574      Fe  0.88320165  0.11863513  0.29156001     1.73200
Fe575      Fe  0.87527836  0.12746786  0.34506853     1.54400
O576        O  0.88052790  0.15952536  0.35321435    -0.80200
O577        O  0.88144354  0.08951738  0.30678057    -0.78500
O578        O  0.85553346  0.17543424  0.33356011    -0.82700
O579        O  0.82553065  0.14106292  0.32410279    -0.77600
O580        O  0.90823375  0.12472415  0.33981165    -0.79400
O581        O  0.85463456  0.11114170  0.27676699    -0.82100
C582        C  0.82549023  0.13272875  0.34263660     0.98700
C583        C  0.86929236  0.17579035  0.34840756     1.06100
O584        O  0.86929979  0.13415953  0.31487962    -1.11100
O585        O  0.88677641  0.14607389  0.27292131    -0.73500
O586        O  0.87151056  0.17300584  0.29058656    -0.77000
O587        O  0.84264278  0.12921821  0.35333401    -0.77700
C588        C  0.88300420  0.16593587  0.27545228     0.97600
O589        O  0.83798095  0.14220515  0.28003683    -0.75700
O590        O  0.91290246  0.12400998  0.30432400    -0.80800
C591        C  0.87552687  0.08239282  0.32481319     1.00200
C592        C  0.92019380  0.12423012  0.32331220     1.06100
O593        O  0.87097791  0.09470973  0.34036389    -0.76500
C594        C  0.83991644  0.12400345  0.27145297     1.04400
Fe595      Fe  0.69090754  0.15009716  0.15675464     1.65800
Fe596      Fe  0.70730320  0.11719753  0.11732142     1.73200
Fe597      Fe  0.65343766  0.12574397  0.12496626     1.54400
O598        O  0.64289098  0.12229626  0.15648181    -0.80200
O599        O  0.69303542  0.11999252  0.08772476    -0.78500
O600        O  0.66602811  0.14104957  0.17583572    -0.82700
O601        O  0.67311974  0.17388645  0.14334895    -0.77600
O602        O  0.65824150  0.09285991  0.12468865    -0.79400
O603        O  0.72264544  0.14601201  0.11117308    -0.82100
C604        C  0.65636623  0.17496908  0.13188220     0.98700
C605        C  0.64911301  0.13019103  0.17413314     1.06100
O606        O  0.68371278  0.13093216  0.13295089    -1.11100
O607        O  0.72589490  0.11236972  0.14453332    -0.73500
O608        O  0.70937755  0.12762081  0.17199137    -0.77000
O609        O  0.64647436  0.15853587  0.12483344    -0.77700
C610        C  0.72428918  0.11623242  0.16442004     0.97600
O611        O  0.71712414  0.16303243  0.14173929    -0.75700
O612        O  0.69363842  0.08752842  0.12197743    -0.80800
C613        C  0.67481385  0.12451535  0.08004262     1.00200
C614        C  0.67457892  0.08064661  0.12405059     1.06100
O615        O  0.65872577  0.12788157  0.09196345    -0.76500
C616        C  0.72616709  0.16162764  0.12369225     1.04400
Fe617      Fe  0.65682685  0.35072071  0.18989414     1.65800
Fe618      Fe  0.61751260  0.38367824  0.20713533     1.73200
Fe619      Fe  0.62513832  0.37615858  0.15299627     1.54400
O620        O  0.65674239  0.38080040  0.14304104    -0.80200
O621        O  0.58817725  0.37893983  0.19335485    -0.78500
O622        O  0.67591890  0.36097698  0.16558256    -0.82700
O623        O  0.64376400  0.32734092  0.17123151    -0.77600
O624        O  0.62370552  0.40899470  0.15819652    -0.79400
O625        O  0.61271578  0.35510947  0.22335949    -0.82100
C626        C  0.63289656  0.32696925  0.15406775     0.98700
C627        C  0.67438520  0.37279015  0.14928288     1.06100
O628        O  0.63311206  0.37025760  0.18323105    -1.11100
O629        O  0.64496120  0.39032401  0.22448794    -0.73500
O630        O  0.67174725  0.37262697  0.20928752    -0.77000
O631        O  0.62602889  0.34376331  0.14470214    -0.77700
C632        C  0.66470935  0.38590033  0.22288830     0.97600
O633        O  0.64179303  0.33672141  0.21528024    -0.75700
O634        O  0.62027567  0.41349334  0.19349291    -0.80800
C635        C  0.58055220  0.37433539  0.17514888     1.00200
C636        C  0.62232081  0.42088468  0.17467083     1.06100
O637        O  0.59230880  0.37248158  0.15865339    -0.76500
C638        C  0.62461483  0.33882212  0.22563906     1.04400
Fe639      Fe  0.65019933  0.18874898  0.34009523     1.65800
Fe640      Fe  0.61673501  0.20697189  0.37782479     1.73200
Fe641      Fe  0.62491901  0.15319573  0.37259998     1.54400
O642        O  0.61924981  0.14278628  0.34145331    -0.80200
O643        O  0.61805438  0.19341295  0.40788936    -0.78500
O644        O  0.64232707  0.16202064  0.32261750    -0.82700
O645        O  0.67411088  0.17270164  0.35559399    -0.77600
O646        O  0.59195738  0.15858153  0.37481551    -0.79400
O647        O  0.64574748  0.22173704  0.38445309    -0.82100
C648        C  0.67453102  0.15516599  0.36582374     0.98700
C649        C  0.62890269  0.14700846  0.32416155     1.06100
O650        O  0.63056377  0.18281063  0.36362361    -1.11100
O651        O  0.61310808  0.22440365  0.34969029    -0.73500
O652        O  0.62718487  0.20529760  0.32330644    -0.77000
O653        O  0.65760556  0.14505013  0.37120930    -0.77700
C654        C  0.61617932  0.22101257  0.32987389     0.97600
O655        O  0.66188495  0.21670723  0.35331106    -0.75700
O656        O  0.58700170  0.19390645  0.37236455    -0.80800
C657        C  0.62402005  0.17592195  0.41628223     1.00200
C658        C  0.57978710  0.17490101  0.37297884     1.06100
O659        O  0.62922710  0.15987041  0.40496004    -0.76500
C660        C  0.66056292  0.22600352  0.37128493     1.04400
Fe661      Fe  0.84858351  0.84383694  0.30713213     1.65800
Fe662      Fe  0.87770692  0.88611655  0.28925726     1.73200
Fe663      Fe  0.87360597  0.87613777  0.34328358     1.54400
O664        O  0.84143036  0.87633360  0.35205184    -0.80200
O665        O  0.90820329  0.88712700  0.30256263    -0.78500
O666        O  0.82770676  0.85052687  0.33163621    -0.82700
O667        O  0.86638943  0.82402296  0.32592758    -0.77600
O668        O  0.87097095  0.90910605  0.33844045    -0.79400
O669        O  0.88762287  0.86010940  0.27146383    -0.82100
C670        C  0.87490075  0.82596243  0.34419282     0.98700
C671        C  0.82606191  0.86416019  0.34656161     1.06100
O672        O  0.86671137  0.86873244  0.31320940    -1.11100
O673        O  0.84836476  0.88700977  0.27329259    -0.73500
O674        O  0.82883633  0.86096857  0.28743018    -0.77000
O675        O  0.87724840  0.84408748  0.35323940    -0.77700
C676        C  0.83095277  0.87664116  0.27474496     0.97600
O677        O  0.86668236  0.83341440  0.28182356    -0.75700
O678        O  0.86930377  0.91451928  0.30336857    -0.80800
C679        C  0.91708691  0.88239992  0.32035482     1.00200
C680        C  0.86859428  0.92141960  0.32239153     1.06100
O681        O  0.90628638  0.87697662  0.33676688    -0.76500
C682        C  0.88115045  0.84098075  0.26991622     1.04400
Fe683      Fe  0.84529970  0.69861786  0.15191434     1.65800
Fe684      Fe  0.87915999  0.71313276  0.11316263     1.73200
Fe685      Fe  0.87180574  0.66037084  0.12473179     1.54400
O686        O  0.87187472  0.65302579  0.15760837    -0.80200
O687        O  0.86893780  0.69933591  0.08510026    -0.78500
O688        O  0.86321163  0.68322717  0.17458939    -0.82700
O689        O  0.82608307  0.67206725  0.14805897    -0.77600
O690        O  0.90449577  0.66529942  0.12678940    -0.79400
O691        O  0.85177157  0.73236113  0.11253614    -0.82100
C692        C  0.82438118  0.65730309  0.13428107     0.98700
C693        C  0.87015687  0.66414838  0.17467724     1.06100
O694        O  0.86557150  0.69060108  0.12987573    -1.11100
O695        O  0.89041567  0.72864566  0.14021013    -0.73500
O696        O  0.86083288  0.72672772  0.15966891    -0.77000
O697        O  0.83956767  0.65258236  0.12171040    -0.77700
C698        C  0.87888428  0.73496887  0.15560274     0.97600
O699        O  0.82654906  0.71441203  0.13005751    -0.75700
O700        O  0.90823697  0.69719126  0.11149197    -0.80800
C701        C  0.86952872  0.68001630  0.07887691     1.00200
C702        C  0.91612794  0.67985951  0.11871633     1.06100
O703        O  0.87258182  0.66434122  0.09158223    -0.76500
C704        C  0.83234116  0.72961171  0.11795206     1.04400
Fe705      Fe  0.68072719  0.84889652  0.15512315     1.65800
Fe706      Fe  0.69974289  0.88354756  0.11914842     1.73200
Fe707      Fe  0.64581006  0.87651005  0.12408598     1.54400
O708        O  0.63641841  0.84410837  0.12474752    -0.80200
O709        O  0.68770162  0.91302050  0.12673643    -0.78500
O710        O  0.66442767  0.82632042  0.13834545    -0.82700
O711        O  0.65394886  0.85626724  0.17259226    -0.77600
O712        O  0.65245744  0.87253661  0.09186888    -0.79400
O713        O  0.71763996  0.88450032  0.14728550    -0.82100
C714        C  0.63955316  0.87048388  0.17197456     0.98700
C715        C  0.64646208  0.82673649  0.12885726     1.06100
O716        O  0.67526459  0.86972179  0.13266149    -1.11100
O717        O  0.71340723  0.85465398  0.11075416    -0.73500
O718        O  0.70849945  0.83758501  0.14142884    -0.77000
O719        O  0.63591222  0.88163994  0.15540606    -0.77700
C720        C  0.71741591  0.83918807  0.12330799     0.97600
O721        O  0.69752717  0.87065157  0.17303613    -0.75700
O722        O  0.68573526  0.88470220  0.08912590    -0.80800
C723        C  0.66892137  0.92076165  0.12591588     1.00200
C724        C  0.66830741  0.87848648  0.08071115     1.06100
O725        O  0.65233067  0.90929716  0.12264998    -0.76500
C726        C  0.71395962  0.88078849  0.16694235     1.04400
Fe727      Fe  0.65205464  0.81202877  0.34129980     1.65800
Fe728      Fe  0.61648763  0.79359270  0.37783147     1.73200
Fe729      Fe  0.62325484  0.84761877  0.37135837     1.54400
O730        O  0.65543436  0.85729429  0.37161855    -0.80200
O731        O  0.58663827  0.80625083  0.37280026    -0.78500
O732        O  0.67422710  0.83095694  0.35633470    -0.82700
O733        O  0.64256978  0.83701458  0.32194508    -0.77600
O734        O  0.62604464  0.84175375  0.40400899    -0.79400
O735        O  0.61255934  0.77671978  0.34971838    -0.82100
C736        C  0.62910678  0.85213825  0.32272228     0.98700
C737        C  0.67308993  0.84858474  0.36628192     1.06100
O738        O  0.63060511  0.81781801  0.36356905    -1.11100
O739        O  0.64473923  0.77783096  0.38460820    -0.73500
O740        O  0.66529410  0.78602687  0.35699208    -0.77000
O741        O  0.61917438  0.85706014  0.33968963    -0.77700
C742        C  0.66162156  0.77522517  0.37376657     0.97600
O743        O  0.63159945  0.79248175  0.32423288    -0.75700
O744        O  0.61832831  0.80724650  0.40775219    -0.80800
C745        C  0.57868960  0.82487563  0.37182832     1.00200
C746        C  0.62249293  0.82545780  0.41564667     1.06100
O747        O  0.59031187  0.84161368  0.37205692    -0.76500
C748        C  0.61822614  0.77849417  0.33031460     1.04400
Fe749      Fe  0.80682636  0.65900897  0.35066554     1.65800
Fe750      Fe  0.79223723  0.61795581  0.38249817     1.73200
Fe751      Fe  0.84581706  0.62844674  0.37406878     1.54400
O752        O  0.85312923  0.63022940  0.34144109    -0.80200
O753        O  0.80582555  0.62251417  0.41233981    -0.78500
O754        O  0.82600610  0.64819776  0.32647679    -0.82700
O755        O  0.82976020  0.67919709  0.36194993    -0.77600
O756        O  0.84190487  0.59542743  0.37009417    -0.79400
O757        O  0.77189927  0.64365916  0.38807529    -0.82100
C758        C  0.84669902  0.67818911  0.37295375     0.98700
C759        C  0.84329418  0.63764535  0.32510942     1.06100
O760        O  0.81510828  0.63505665  0.36912610    -1.11100
O761        O  0.77704204  0.61175817  0.35342135    -0.73500
O762        O  0.78223645  0.64250529  0.33657607    -0.77000
O763        O  0.85468932  0.66047263  0.37904677    -0.77700
C764        C  0.77343747  0.62432736  0.33779848     0.97600
O765        O  0.78691620  0.67210902  0.37311726    -0.75700
O766        O  0.80817976  0.58950699  0.37941821    -0.80800
C767        C  0.82492185  0.62433307  0.41936183     1.00200
C768        C  0.82657021  0.58280712  0.37436794     1.06100
O769        O  0.84111874  0.62591632  0.40706400    -0.76500
C770        C  0.77262049  0.66362325  0.38458305     1.04400
Fe771      Fe  0.65100881  0.65482339  0.19241346     1.65800
Fe772      Fe  0.61568321  0.61741501  0.20767519     1.73200
Fe773      Fe  0.62390910  0.62686980  0.15451812     1.54400
O774        O  0.62383436  0.65951015  0.14626691    -0.80200
O775        O  0.62458034  0.58863475  0.19481825    -0.78500
O776        O  0.63430214  0.67735032  0.17548432    -0.82700
O777        O  0.67079638  0.64910763  0.16673287    -0.77600
O778        O  0.59105622  0.62936131  0.15896697    -0.79400
O779        O  0.64286867  0.61600371  0.22714682    -0.82100
C780        C  0.67188101  0.63526834  0.15199943     0.98700
C781        C  0.62633042  0.67687239  0.15677413     1.06100
O782        O  0.63012992  0.63295663  0.18474598    -1.11100
O783        O  0.60532336  0.64514415  0.22217849    -0.73500
O784        O  0.63490855  0.66460767  0.21947128    -0.77000
O785        O  0.65613932  0.62349436  0.14691769    -0.77700
C786        C  0.61659366  0.66113761  0.22731732     0.97600
O787        O  0.66874578  0.63326539  0.20989924    -0.75700
O788        O  0.58670561  0.61667469  0.19184243    -0.80800
C789        C  0.62530953  0.58157727  0.17578664     1.00200
C790        C  0.57908105  0.62320777  0.17414053     1.06100
O791        O  0.62330835  0.59374206  0.15948449    -0.76500
C792        C  0.66245084  0.62103340  0.22481625     1.04400
Fe793      Fe  0.18906692  0.33901808  0.35326561     1.65800
Fe794      Fe  0.20491280  0.37999594  0.38468812     1.73200
Fe795      Fe  0.15103108  0.37112446  0.37600036     1.54400
O796        O  0.14316754  0.36889858  0.34316272    -0.80200
O797        O  0.19146361  0.37573010  0.41430487    -0.78500
O798        O  0.16916238  0.34875934  0.32926203    -0.82700
O799        O  0.16610308  0.31961264  0.36574287    -0.77600
O800        O  0.15591240  0.40373223  0.37164652    -0.79400
O801        O  0.22468998  0.35384854  0.39078695    -0.82100
C802        C  0.14885743  0.32161517  0.37600726     0.98700
C803        C  0.15190521  0.35924617  0.32741893     1.06100
O804        O  0.18152693  0.36348701  0.37126052    -1.11100
O805        O  0.22007602  0.38546782  0.35581171    -0.73500
O806        O  0.21350772  0.35528042  0.33826276    -0.77000
O807        O  0.14117598  0.33968125  0.38116646    -0.77700
C808        C  0.22298730  0.37316081  0.33990763     0.97600
O809        O  0.20928553  0.32587152  0.37538889    -0.75700
O810        O  0.18972151  0.40897469  0.38108596    -0.80800
C811        C  0.17252116  0.37414482  0.42149366     1.00200
C812        C  0.17152357  0.41608344  0.37563529     1.06100
O813        O  0.15603613  0.37365651  0.40927073    -0.76500
C814        C  0.22356604  0.33393165  0.38717545     1.04400
Fe815      Fe  0.34678262  0.34617450  0.19811923     1.65800
Fe816      Fe  0.38199220  0.38421861  0.21206835     1.73200
Fe817      Fe  0.37455096  0.37170355  0.15955041     1.54400
O818        O  0.37328394  0.33869978  0.15282419    -0.80200
O819        O  0.37290473  0.41248019  0.19754384    -0.78500
O820        O  0.36368698  0.32255494  0.18313690    -0.82700
O821        O  0.32782937  0.35037285  0.17135333    -0.77600
O822        O  0.40704508  0.36809353  0.16514213    -0.79400
O823        O  0.35460836  0.38606038  0.23113431    -0.82100
C824        C  0.32682847  0.36373792  0.15613584     0.98700
C825        C  0.37081730  0.32185234  0.16416390     1.06100
O826        O  0.36783651  0.36746171  0.18980800    -1.11100
O827        O  0.39224328  0.35703471  0.22807932    -0.73500
O828        O  0.36216637  0.33816991  0.22639299    -0.77000
O829        O  0.34245376  0.37574863  0.15126791    -0.77700
C830        C  0.38052387  0.34173472  0.23431419     0.97600
O831        O  0.32878807  0.36880511  0.21359049    -0.75700
O832        O  0.41127483  0.38448120  0.19646469    -0.80800
C833        C  0.37418391  0.41828715  0.17808727     1.00200
C834        C  0.41894418  0.37594187  0.17969097     1.06100
O835        O  0.37689773  0.40504957  0.16278105    -0.76500
C836        C  0.33502915  0.38095569  0.22861628     1.04400
Fe837      Fe  0.34608753  0.18791763  0.34500104     1.65800
Fe838      Fe  0.38086883  0.20566484  0.38291652     1.73200
Fe839      Fe  0.37366418  0.15174063  0.37571893     1.54400
O840        O  0.34163303  0.14357010  0.37865145    -0.80200
O841        O  0.41052623  0.19115193  0.38221847    -0.78500
O842        O  0.32552317  0.16382419  0.35401930    -0.82700
O843        O  0.36127874  0.16817086  0.32388240    -0.77600
O844        O  0.37366551  0.15771601  0.40857481    -0.79400
O845        O  0.38921129  0.22147229  0.35523183    -0.82100
C846        C  0.37025631  0.15011402  0.32580856     0.98700
C847        C  0.32526022  0.14901722  0.36787261     1.06100
O848        O  0.36693690  0.18173079  0.36787550    -1.11100
O849        O  0.35282338  0.22323000  0.38563309    -0.73500
O850        O  0.32876410  0.20835089  0.36404358    -0.77000
O851        O  0.37453754  0.14154971  0.34382204    -0.77700
C852        C  0.33388718  0.22190233  0.37826459     0.97600
O853        O  0.36342372  0.21298590  0.33229038    -0.75700
O854        O  0.37441182  0.19306225  0.41240885    -0.80800
C855        C  0.41827181  0.17286675  0.37792984     1.00200
C856        C  0.37330869  0.17440586  0.42019882     1.06100
O857        O  0.40647363  0.15678061  0.37393655    -0.76500
C858        C  0.37985890  0.22375588  0.33735504     1.04400
Fe859      Fe  0.15324182  0.15446888  0.30741995     1.65800
Fe860      Fe  0.11882402  0.11611071  0.29001882     1.73200
Fe861      Fe  0.12516397  0.12522213  0.34406076     1.54400
O862        O  0.15695568  0.12328633  0.35360627    -0.80200
O863        O  0.08875508  0.11862751  0.30329137    -0.78500
O864        O  0.17357434  0.14610718  0.33198454    -0.82700
O865        O  0.13765556  0.17605687  0.32614827    -0.77600
O866        O  0.12610712  0.09226700  0.33943430    -0.79400
O867        O  0.11154338  0.14299385  0.27258874    -0.82100
C868        C  0.12726152  0.17517098  0.34346982     0.98700
C869        C  0.17349234  0.13343349  0.34779204     1.06100
O870        O  0.13238761  0.13186439  0.31386355    -1.11100
O871        O  0.14745752  0.11176691  0.27370316    -0.73500
O872        O  0.17076134  0.13474613  0.28796647    -0.77000
O873        O  0.12286238  0.15754694  0.35270930    -0.77700
C874        C  0.16618630  0.11953795  0.27534466     0.97600
O875        O  0.13612854  0.16675774  0.28193933    -0.75700
O876        O  0.12394511  0.08716448  0.30428153    -0.80800
C877        C  0.08103670  0.12280422  0.32159092     1.00200
C878        C  0.12561306  0.08005003  0.32318366     1.06100
O879        O  0.09264049  0.12598289  0.33801608    -0.76500
C880        C  0.12024307  0.16111385  0.27064492     1.04400
Fe881      Fe  0.31548664  0.15080446  0.15591602     1.65800
Fe882      Fe  0.29638401  0.11369733  0.12241586     1.73200
Fe883      Fe  0.35023657  0.12192648  0.12709367     1.54400
O884        O  0.35979698  0.15442483  0.12798541    -0.80200
O885        O  0.30941136  0.08453279  0.13007537    -0.78500
O886        O  0.33039568  0.17246818  0.13702626    -0.82700
O887        O  0.34323831  0.14532898  0.17292376    -0.77600
O888        O  0.34347577  0.12569934  0.09496208    -0.79400
O889        O  0.27969393  0.11286274  0.15143897    -0.82100
C890        C  0.35638725  0.12996364  0.17409334     0.98700
C891        C  0.34932387  0.17191405  0.12993370     1.06100
O892        O  0.32071889  0.12865975  0.13496113    -1.11100
O893        O  0.28085997  0.14171929  0.11348589    -0.73500
O894        O  0.28685785  0.16051464  0.14283145    -0.77000
O895        O  0.35914773  0.11702473  0.15875100    -0.77700
C896        C  0.27655178  0.15736661  0.12565024     0.97600
O897        O  0.29998004  0.12982761  0.17545953    -0.75700
O898        O  0.31024942  0.11281447  0.09222950    -0.80800
C899        C  0.32818234  0.07702429  0.12823459     1.00200
C900        C  0.32764854  0.11926942  0.08387105     1.06100
O901        O  0.34436218  0.08903865  0.12519788    -0.76500
C902        C  0.28383389  0.11851278  0.17065186     1.04400
Fe903      Fe  0.15300192  0.30096997  0.15063282     1.65800
Fe904      Fe  0.11743979  0.28707312  0.11280434     1.73200
Fe905      Fe  0.12682842  0.33967770  0.12350136     1.54400
O906        O  0.12801030  0.34731855  0.15648201    -0.80200
O907        O  0.12643996  0.30036409  0.08432746    -0.78500
O908        O  0.13595959  0.31684207  0.17356969    -0.82700
O909        O  0.17272282  0.32713032  0.14639901    -0.77600
O910        O  0.09395633  0.33579314  0.12650527    -0.79400
O911        O  0.14465054  0.26735917  0.11125138    -0.82100
C912        C  0.17449325  0.34137844  0.13210583     0.98700
C913        C  0.12961742  0.33613340  0.17358654     1.06100
O914        O  0.13228202  0.30934005  0.12889337    -1.11100
O915        O  0.10700065  0.27198672  0.14012832    -0.73500
O916        O  0.13726152  0.27317687  0.15878771    -0.77000
O917        O  0.15918314  0.34623443  0.11962456    -0.77700
C918        C  0.11889811  0.26541525  0.15517216     0.97600
O919        O  0.17069544  0.28460349  0.12848404    -0.75700
O920        O  0.08855102  0.30357244  0.11240785    -0.80800
C921        C  0.12699299  0.31950066  0.07760762     1.00200
C922        C  0.08148432  0.32121027  0.11970076     1.06100
O923        O  0.12521813  0.33547139  0.09019895    -0.76500
C924        C  0.16431137  0.26952847  0.11644405     1.04400
Fe925      Fe  0.34438129  0.80151869  0.34740405     1.65800
Fe926      Fe  0.38083789  0.78866913  0.38588456     1.73200
Fe927      Fe  0.37181433  0.84174868  0.37261303     1.54400
O928        O  0.37365489  0.84816631  0.33959846    -0.80200
O929        O  0.37378906  0.80434756  0.41384752    -0.78500
O930        O  0.35599598  0.82138457  0.32435754    -0.82700
O931        O  0.32233129  0.82357387  0.35734932    -0.77600
O932        O  0.40479365  0.83732832  0.37226519    -0.79400
O933        O  0.35409132  0.76957406  0.39098040    -0.82100
C934        C  0.32226345  0.84123869  0.36725935     0.98700
C935        C  0.36690034  0.83833540  0.32304102     1.06100
O936        O  0.36574474  0.81068112  0.36865102    -1.11100
O937        O  0.38918087  0.77052946  0.35943755    -0.73500
O938        O  0.36399140  0.77814493  0.33510719    -0.77000
O939        O  0.33938652  0.85027438  0.37362764    -0.77700
C940        C  0.38043768  0.76791250  0.34124186     0.97600
O941        O  0.32970485  0.78016713  0.36736075    -0.75700
O942        O  0.41005024  0.80398555  0.38363532    -0.80800
C943        C  0.37122380  0.82370639  0.41937809     1.00200
C944        C  0.41711021  0.82210245  0.37783470     1.06100
O945        O  0.37108569  0.83917555  0.40605089    -0.76500
C946        C  0.33556772  0.76831734  0.38269985     1.04400
Fe947      Fe  0.15167573  0.85040956  0.29645994     1.65800
Fe948      Fe  0.11567896  0.88869992  0.28508729     1.73200
Fe949      Fe  0.12404166  0.87372328  0.33702329     1.54400
O950        O  0.12449399  0.84050834  0.34248669    -0.80200
O951        O  0.12663661  0.91563248  0.30022354    -0.78500
O952        O  0.13758072  0.82584638  0.31279256    -0.82700
O953        O  0.17267652  0.85659619  0.32104709    -0.77600
O954        O  0.09114684  0.87147892  0.33204080    -0.79400
O955        O  0.14154055  0.89077328  0.26392595    -0.82100
C956        C  0.17308579  0.86843245  0.33749387     0.98700
C957        C  0.12900451  0.82418857  0.33106882     1.06100
O958        O  0.13035776  0.87082601  0.30634418    -1.11100
O959        O  0.10411942  0.86217787  0.26919572    -0.73500
O960        O  0.13348273  0.84175258  0.27004076    -0.77000
O961        O  0.15628304  0.87676644  0.34530415    -0.77700
C962        C  0.11483031  0.84606410  0.26305557     0.97600
O963        O  0.16807531  0.87316368  0.27959405    -0.75700
O964        O  0.08719588  0.89011023  0.30200842    -0.80800
C965        C  0.12641936  0.92065771  0.31994136     1.00200
C966        C  0.07942744  0.88132835  0.31856698     1.06100
O967        O  0.12298899  0.90714061  0.33487295    -0.76500
C968        C  0.16119447  0.88573774  0.26531247     1.04400
Fe969      Fe  0.30974906  0.84407866  0.14769614     1.65800
Fe970      Fe  0.29508289  0.88224705  0.11260211     1.73200
Fe971      Fe  0.34813028  0.87108898  0.12089958     1.54400
O972        O  0.35707537  0.86854749  0.15345197    -0.80200
O973        O  0.30727968  0.87480495  0.08298507    -0.78500
O974        O  0.32758539  0.85869040  0.17096333    -0.82700
O975        O  0.33455668  0.82361025  0.14029027    -0.77600
O976        O  0.34502346  0.90370389  0.12564065    -0.79400
O977        O  0.27455976  0.85602708  0.11007807    -0.82100
C978        C  0.34893563  0.82279547  0.12610013     0.98700
C979        C  0.34660842  0.86570393  0.17076472     1.06100
O980        O  0.31774753  0.86590618  0.12697353    -1.11100
O981        O  0.28092374  0.89133047  0.14118419    -0.73500
O982        O  0.28362308  0.86073657  0.15895245    -0.77000
O983        O  0.35434413  0.83897657  0.11517337    -0.77700
C984        C  0.27593500  0.87939165  0.15682837     0.97600
O985        O  0.29116971  0.82842309  0.12548276    -0.75700
O986        O  0.31226070  0.91051000  0.11312254    -0.80800
C987        C  0.32623761  0.87417298  0.07571057     1.00200
C988        C  0.33047624  0.91665889  0.11978078     1.06100
O989        O  0.34269077  0.87430750  0.08789552    -0.76500
C990        C  0.27607141  0.83613925  0.11422786     1.04400
Fe991      Fe  0.14832894  0.69508109  0.15442772     1.65800
Fe992      Fe  0.11462348  0.71118265  0.11513150     1.73200
Fe993      Fe  0.12264736  0.65746234  0.12399427     1.54400
O994        O  0.15523337  0.64926646  0.12498302    -0.80200
O995        O  0.08495689  0.69797650  0.11995854    -0.78500
O996        O  0.17180504  0.67639021  0.14140784    -0.82700
O997        O  0.13882290  0.67074676  0.17418913    -0.77600
O998        O  0.12587734  0.66214253  0.09117331    -0.79400
O999        O  0.10952804  0.72990960  0.14204753    -0.82100
C1000       C  0.12691589  0.65446698  0.17307968     0.98700
C1001       C  0.17218090  0.65886667  0.13118212     1.06100
O1002       O  0.12847814  0.68777994  0.13113747    -1.11100
O1003       O  0.14329374  0.72646748  0.10853447    -0.73500
O1004       O  0.16160244  0.72049909  0.13841338    -0.77000
O1005       O  0.11826959  0.64831225  0.15574894    -0.77700
C1006       C  0.15954171  0.72954436  0.12038068     0.97600
O1007       O  0.12637810  0.71453490  0.16935728    -0.75700
O1008       O  0.11727914  0.69618495  0.08600493    -0.80800
C1009       C  0.07760886  0.67910781  0.12160360     1.00200
C1010       C  0.12201863  0.67785238  0.07883258     1.06100
O1011       O  0.08965024  0.66262963  0.12224148    -0.76500
C1012       C  0.11371015  0.72858418  0.16191620     1.04400
Fe1013     Fe  0.34570347  0.65233137  0.19071736     1.65800
Fe1014     Fe  0.38238278  0.61633106  0.20651549     1.73200
Fe1015     Fe  0.37243967  0.62373555  0.15325218     1.54400
O1016       O  0.33974627  0.62472544  0.14507008    -0.80200
O1017       O  0.41112532  0.62494322  0.19342436    -0.78500
O1018       O  0.32255766  0.63601092  0.17430308    -0.82700
O1019       O  0.35157007  0.67135864  0.16432936    -0.77600
O1020       O  0.36918086  0.59110270  0.15859631    -0.79400
O1021       O  0.38393640  0.64375286  0.22566084    -0.82100
C1022       C  0.36483615  0.67159877  0.14904280     0.98700
C1023       C  0.32257666  0.62819958  0.15555577     1.06100
O1024       O  0.36690086  0.63072465  0.18335566    -1.11100
O1025       O  0.35444351  0.60666161  0.22123474    -0.73500
O1026       O  0.33605791  0.63700115  0.21840234    -0.77000
O1027       O  0.37641974  0.65556367  0.14452694    -0.77700
C1028       C  0.33913053  0.61874744  0.22673397     0.97600
O1029       O  0.36773354  0.66984982  0.20774471    -0.75700
O1030       O  0.38322633  0.58691751  0.19109724    -0.80800
C1031       C  0.41793978  0.62485382  0.17429352     1.00200
C1032       C  0.37618387  0.57924121  0.17360923     1.06100
O1033       O  0.40560720  0.62230351  0.15815700    -0.76500
C1034       C  0.37920464  0.66343858  0.22329872     1.04400
Fe1035     Fe  0.18998550  0.64858645  0.34186595     1.65800
Fe1036     Fe  0.20465110  0.61238599  0.37881352     1.73200
Fe1037     Fe  0.15179272  0.62297366  0.37019435     1.54400
O1038       O  0.14408418  0.65577490  0.36765232    -0.80200
O1039       O  0.19107013  0.58369050  0.37061803    -0.78500
O1040       O  0.17411775  0.67238552  0.35775662    -0.82700
O1041       O  0.16340810  0.64303306  0.32287405    -0.77600
O1042       O  0.15681047  0.62748420  0.40269225    -0.79400
O1043       O  0.22379732  0.60993813  0.35162095    -0.82100
C1044       C  0.14822733  0.62960958  0.32248129     0.98700
C1045       C  0.15491899  0.67278947  0.36428727     1.06100
O1046       O  0.18203901  0.62793854  0.36373010    -1.11100
O1047       O  0.22022003  0.64017162  0.38796378    -0.73500
O1048       O  0.21791956  0.65776734  0.35715741    -0.77000
O1049       O  0.14374099  0.61789998  0.33839896    -0.77700
C1050       C  0.22644543  0.65482996  0.37539492     0.97600
O1051       O  0.20650863  0.62583400  0.32479570    -0.75700
O1052       O  0.18879303  0.61260009  0.40803295    -0.80800
C1053       C  0.17187648  0.57707338  0.37061495     1.00200
C1054       C  0.17141518  0.62047497  0.41505634     1.06100
O1055       O  0.15596663  0.58970263  0.37288896    -0.76500
C1056       C  0.22176407  0.61431920  0.33179144     1.04400
C1057       C  0.30539427  0.62164058  0.27621556     0.14100
C1058       C  0.29155912  0.60415324  0.27341218     0.01100
C1059       C  0.29481924  0.59015586  0.25610293     0.16100
C1060       C  0.31132260  0.59403350  0.24143922     0.25500
C1061       C  0.32441034  0.61213646  0.24377941    -0.40900
C1062       C  0.32159633  0.62564126  0.26147720     0.32500
C1063       C  0.27300233  0.60182144  0.28787944     0.01100
F1064       F  0.28174202  0.57308544  0.25317357    -0.13200
F1065       F  0.33427071  0.64307717  0.26416346    -0.13700
C1066       C  0.25213612  0.60506085  0.28008560     0.16100
C1067       C  0.23506904  0.60767412  0.29431279     0.25500
C1068       C  0.23862098  0.60715733  0.31663412    -0.40800
C1069       C  0.25933216  0.60215880  0.32424868     0.32400
C1070       C  0.27630516  0.59956695  0.30998783     0.14100
F1071       F  0.24853193  0.60726434  0.25874683    -0.13200
F1072       F  0.26363047  0.60132209  0.34555258    -0.13700
F1073       F  0.21526123  0.61162149  0.28620492    -0.16000
F1074       F  0.29629579  0.59604358  0.31783393    -0.14500
F1075       F  0.30248722  0.63552010  0.29266450    -0.14500
F1076       F  0.31373961  0.58088293  0.22433864    -0.15900
C1077       C  0.21878749  0.61990436  0.12901552     0.14100
C1078       C  0.23614211  0.63409996  0.12669363     0.01100
C1079       C  0.23184027  0.65585250  0.12283566     0.16100
C1080       C  0.21084038  0.66345834  0.12272152     0.25500
C1081       C  0.19358602  0.64962553  0.12682568    -0.40900
C1082       C  0.19766005  0.62761946  0.12916210     0.32500
C1083       C  0.25852027  0.62726692  0.13144430     0.01100
F1084       F  0.24804400  0.67015616  0.12084351    -0.13200
F1085       F  0.18140048  0.61383334  0.13315579    -0.13700
C1086       C  0.27549212  0.63286682  0.11774170     0.16100
C1087       C  0.29678682  0.63143025  0.12483569     0.25500
C1088       C  0.30140737  0.62419605  0.14566577    -0.40800
C1089       C  0.28459572  0.61663313  0.15849123     0.32400
C1090       C  0.26338724  0.61822989  0.15151916     0.14100
F1091       F  0.27137135  0.64102871  0.09800268    -0.13200
F1092       F  0.28863351  0.60895658  0.17845144    -0.13700
F1093       F  0.31263703  0.63901827  0.11213595    -0.16000
F1094       F  0.24755439  0.61279247  0.16529173    -0.14500
F1095       F  0.22236371  0.59870998  0.13212907    -0.14500
F1096       F  0.20742794  0.68466046  0.11944780    -0.15900
C1097       C  0.14053113  0.62745955  0.22497972     0.14100
C1098       C  0.12103614  0.62875729  0.23598473     0.01100
C1099       C  0.10256406  0.63550882  0.22492101     0.16100
C1100       C  0.10391839  0.64211673  0.20346139     0.25500
C1101       C  0.12382322  0.64236812  0.19307670    -0.40900
C1102       C  0.14194936  0.63440203  0.20379986     0.32500
C1103       C  0.12153775  0.62744503  0.25964027     0.01100
F1104       F  0.08359733  0.63700907  0.23531543    -0.13200
F1105       F  0.16138755  0.63474835  0.19417315    -0.13700
C1106       C  0.12137903  0.64659750  0.27135265     0.16100
C1107       C  0.12859315  0.64692015  0.29252544     0.25500
C1108       C  0.13572566  0.62803598  0.30247241    -0.40800
C1109       C  0.13374970  0.60848728  0.29155057     0.32400
C1110       C  0.12691846  0.60822951  0.27010866     0.14100
F1111       F  0.11631483  0.66536279  0.26160454    -0.13200
F1112       F  0.14034779  0.59001186  0.30091858    -0.13700
F1113       F  0.12990907  0.66594151  0.30293343    -0.16000
F1114       F  0.12703306  0.58952129  0.25910559    -0.14500
F1115       F  0.15866879  0.62144607  0.23543053    -0.14500
F1116       F  0.08626990  0.65004839  0.19349898    -0.15900
C1117       C  0.24761286  0.78552568  0.09755311     0.14100
C1118       C  0.22617378  0.79092377  0.10181138     0.01100
C1119       C  0.22113648  0.81222897  0.10701943     0.16100
C1120       C  0.23736871  0.82746002  0.10934877     0.25500
C1121       C  0.25894872  0.82152356  0.10701149    -0.40900
C1122       C  0.26388468  0.80060806  0.10043504     0.32500
C1123       C  0.20974422  0.77391339  0.10410133     0.01100
F1124       F  0.20070900  0.81790270  0.11168695    -0.13200
F1125       F  0.28454777  0.79458757  0.09750878    -0.13700
C1126       C  0.21347114  0.75702338  0.11847631     0.16100
C1127       C  0.19743363  0.74226131  0.12297261     0.25500
C1128       C  0.17699767  0.74411362  0.11346015    -0.40800
C1129       C  0.17351100  0.76047845  0.09830257     0.32400
C1130       C  0.18976064  0.77526049  0.09369031     0.14100
F1131       F  0.23238173  0.75539547  0.12915102    -0.13200
F1132       F  0.15417035  0.76275307  0.08859524    -0.13700
F1133       F  0.20194086  0.72632990  0.13707756    -0.16000
F1134       F  0.18586071  0.79112066  0.07934186    -0.14500
F1135       F  0.25289387  0.76531004  0.09164242    -0.14500
F1136       F  0.23209376  0.84749947  0.11584096    -0.15900
C1137       C  0.36060384  0.76869929  0.10221487     0.14100
C1138       C  0.36888160  0.75788405  0.12021098     0.01100
C1139       C  0.37379924  0.76961200  0.13876357     0.16100
C1140       C  0.36883543  0.79136144  0.13999095     0.25500
C1141       C  0.35923905  0.80188417  0.12256566    -0.40900
C1142       C  0.35599831  0.79067113  0.10332532     0.32500
C1143       C  0.36861980  0.73420180  0.12159585     0.01100
F1144       F  0.38153366  0.75953693  0.15644177    -0.13200
F1145       F  0.34659770  0.80051054  0.08633205    -0.13700
C1146       C  0.38751366  0.72259558  0.12564658     0.16100
C1147       C  0.38650129  0.70134244  0.13288410     0.25500
C1148       C  0.36655102  0.69165139  0.13655452    -0.40800
C1149       C  0.34778461  0.70273368  0.13078998     0.32400
C1150       C  0.34882065  0.72374561  0.12322695     0.14100
F1151       F  0.40683521  0.73231254  0.12390443    -0.13200
F1152       F  0.32830993  0.69354955  0.13356007    -0.13700
F1153       F  0.40488373  0.69096095  0.13809973    -0.16000
F1154       F  0.33033155  0.73454222  0.11937507    -0.14500
F1155       F  0.35576314  0.75772063  0.08409655    -0.14500
F1156       F  0.37211060  0.80188959  0.15872340    -0.15900
C1157       C  0.08581807  0.79960686  0.23806458     0.14100
C1158       C  0.09612135  0.79846519  0.21809670     0.01100
C1159       C  0.11037555  0.81482220  0.21220006     0.16100
C1160       C  0.11530241  0.83121172  0.22649841     0.25500
C1161       C  0.10592137  0.83170497  0.24680263    -0.40900
C1162       C  0.09071444  0.81618553  0.25236484     0.32500
C1163       C  0.09491027  0.77897458  0.20466272     0.01100
F1164       F  0.12094257  0.81396195  0.19327416    -0.13200
F1165       F  0.08185332  0.81621850  0.27217086    -0.13700
C1166       C  0.09013531  0.78054715  0.18273667     0.16100
C1167       C  0.09486693  0.76362133  0.16889414     0.25500
C1168       C  0.10443584  0.74470023  0.17680749    -0.40800
C1169       C  0.10692010  0.74238916  0.19915441     0.32400
C1170       C  0.10233928  0.75940673  0.21289368     0.14100
F1171       F  0.08214720  0.79904135  0.17453704    -0.13200
F1172       F  0.11486152  0.72406060  0.20774649    -0.13700
F1173       F  0.09135385  0.76644192  0.14761793    -0.16000
F1174       F  0.10695260  0.75732947  0.23405404    -0.14500
F1175       F  0.07186178  0.78413245  0.24408174    -0.14500
F1176       F  0.13026990  0.84592401  0.22103309    -0.15900
C1177       C  0.12544543  0.77622422  0.36857532     0.14100
C1178       C  0.12603774  0.75913480  0.35391672     0.01100
C1179       C  0.12467449  0.76369418  0.33192848     0.16100
C1180       C  0.12407796  0.78483682  0.32467476     0.25500
C1181       C  0.12515852  0.80208747  0.33922353    -0.40900
C1182       C  0.12495897  0.79751199  0.36132198     0.32500
C1183       C  0.13078645  0.73685844  0.36103042     0.01100
F1184       F  0.12545673  0.74767145  0.31728545    -0.13200
F1185       F  0.12563697  0.81355598  0.37592769    -0.13700
C1186       C  0.11779578  0.71961447  0.35454639     0.16100
C1187       C  0.12475018  0.69842862  0.35737862     0.25500
C1188       C  0.14488639  0.69415983  0.36659775    -0.40800
C1189       C  0.15709281  0.71135002  0.37450288     0.32400
C1190       C  0.15011124  0.73245514  0.37178999     0.14100
F1191       F  0.09890468  0.72333374  0.34439431    -0.13200
F1192       F  0.17643355  0.70774260  0.38382649    -0.13700
F1193       F  0.11269277  0.68224286  0.34934741    -0.16000
F1194       F  0.16315402  0.74864383  0.37808011    -0.14500
F1195       F  0.12615936  0.77229426  0.38993714    -0.14500
F1196       F  0.12327720  0.78835749  0.30322448    -0.15900
C1197       C  0.21366811  0.90190559  0.24048458     0.14100
C1198       C  0.20963995  0.89791821  0.21865993     0.01100
C1199       C  0.18846758  0.89362806  0.21210036     0.16100
C1200       C  0.17207600  0.89173885  0.22724979     0.25500
C1201       C  0.17668673  0.89347471  0.24921770    -0.40900
C1202       C  0.19743102  0.89942025  0.25561256     0.32500
C1203       C  0.22778164  0.89547166  0.20341593     0.01100
F1204       F  0.18392539  0.88948792  0.19124750    -0.13200
F1205       F  0.20214410  0.90217306  0.27664386    -0.13700
C1206       C  0.24466507  0.88142985  0.20849384     0.16100
C1207       C  0.26087784  0.87736397  0.19377986     0.25500
C1208       C  0.26038733  0.88668525  0.17323763    -0.40800
C1209       C  0.24399097  0.90141001  0.16836593     0.32400
C1210       C  0.22787949  0.90582008  0.18336780     0.14100
F1211       F  0.24496870  0.87067746  0.22738977    -0.13200
F1212       F  0.24295818  0.91079372  0.14879005    -0.13700
F1213       F  0.27691736  0.86384699  0.19959785    -0.16000
F1214       F  0.21219450  0.91995378  0.17817361    -0.14500
F1215       F  0.23362577  0.90723314  0.24729176    -0.14500
F1216       F  0.15212066  0.88633957  0.22055346    -0.15900
C1217       C  0.37146098  0.83869978  0.26261440     0.14100
C1218       C  0.37284054  0.86058024  0.25785062     0.01100
C1219       C  0.37457147  0.87528945  0.27486078     0.16100
C1220       C  0.37396306  0.86819958  0.29628217     0.25500
C1221       C  0.37133241  0.84629809  0.30096438    -0.40900
C1222       C  0.37088033  0.83164083  0.28377159     0.32500
C1223       C  0.36976589  0.86752440  0.23522605     0.01100
F1224       F  0.37621056  0.89653282  0.27071370    -0.13200
F1225       F  0.36914926  0.81027927  0.28734026    -0.13700
C1226       C  0.35116493  0.87883593  0.22947444     0.16100
C1227       C  0.34462076  0.87986623  0.20803399     0.25500
C1228       C  0.35664255  0.86978857  0.19190212    -0.40800
C1229       C  0.37635758  0.86039356  0.19735354     0.32400
C1230       C  0.38283895  0.85921276  0.21887584     0.14100
F1231       F  0.33819818  0.88706366  0.24479042    -0.13200
F1232       F  0.38825095  0.85045872  0.18218255    -0.13700
F1233       F  0.32573882  0.88952416  0.20316077    -0.16000
F1234       F  0.40106484  0.84848162  0.22394301    -0.14500
F1235       F  0.36921252  0.82409749  0.24667576    -0.14500
F1236       F  0.37476041  0.88282609  0.31230327    -0.15900
C1237       C  0.38566870  0.71556718  0.31261062     0.14100
C1238       C  0.39504693  0.72206785  0.29321709     0.01100
C1239       C  0.40270722  0.74314678  0.29132408     0.16100
C1240       C  0.39938084  0.75792043  0.30780301     0.25500
C1241       C  0.38883882  0.75167863  0.32656265    -0.40900
C1242       C  0.38268170  0.73027934  0.32919784     0.32500
C1243       C  0.39393297  0.70788958  0.27417941     0.01100
F1244       F  0.41238069  0.74968897  0.27304457    -0.13200
F1245       F  0.37208054  0.72410688  0.34709692    -0.13700
C1246       C  0.38254286  0.71463633  0.25595161     0.16100
C1247       C  0.37881837  0.70060693  0.23895253     0.25500
C1248       C  0.38615512  0.67925099  0.23984060    -0.40800
C1249       C  0.39855330  0.67286847  0.25773369     0.32400
C1250       C  0.40234817  0.68705956  0.27470171     0.14100
F1251       F  0.37381702  0.73452421  0.25513050    -0.13200
F1252       F  0.40652174  0.65271682  0.25922427    -0.13700
F1253       F  0.36710793  0.70784697  0.22207925    -0.16000
F1254       F  0.41385712  0.68029093  0.29190767    -0.14500
F1255       F  0.37770014  0.69549843  0.31480332    -0.14500
F1256       F  0.40537739  0.77859411  0.30501035    -0.15900
C1257       C  0.27626329  0.88116862  0.36762136     0.14100
C1258       C  0.25869391  0.86722549  0.36969275     0.01100
C1259       C  0.26249585  0.84557836  0.37412225     0.16100
C1260       C  0.28332814  0.83763203  0.37481689     0.25500
C1261       C  0.30097624  0.85110114  0.37114458    -0.40900
C1262       C  0.29733082  0.87318972  0.36860663     0.32500
C1263       C  0.23678316  0.87358929  0.36300711     0.01100
F1264       F  0.24590864  0.83166791  0.37578705    -0.13200
F1265       F  0.31396775  0.88672805  0.36539769    -0.13700
C1266       C  0.23276968  0.87668980  0.34112691     0.16100
C1267       C  0.21188364  0.87607115  0.33319657     0.25500
C1268       C  0.19443196  0.87278093  0.34699312    -0.40800
C1269       C  0.19822719  0.87168384  0.36917360     0.32400
C1270       C  0.21933421  0.87179997  0.37711003     0.14100
F1271       F  0.24924112  0.87824036  0.32710369    -0.13200
F1272       F  0.18174406  0.86870504  0.38292142    -0.13700
F1273       F  0.20879817  0.87756715  0.31174115    -0.16000
F1274       F  0.22284294  0.86879493  0.39835480    -0.14500
F1275       F  0.27297076  0.90222373  0.36344538    -0.14500
F1276       F  0.28618591  0.81638456  0.37800866    -0.15900
C1277       C  0.28373238  0.73828580  0.38995583     0.14100
C1278       C  0.29116203  0.71752281  0.39398166     0.01100
C1279       C  0.31311242  0.71407920  0.39741898     0.16100
C1280       C  0.32762761  0.73109056  0.39566376     0.25500
C1281       C  0.32033815  0.75167464  0.38998498    -0.40900
C1282       C  0.29815251  0.75518159  0.38792611     0.32500
C1283       C  0.27645171  0.69936760  0.39064334     0.01100
F1284       F  0.32058381  0.69400473  0.40103971    -0.13200
F1285       F  0.29043982  0.77477982  0.38274337    -0.13700
C1286       C  0.27481470  0.69047782  0.37011731     0.16100
C1287       C  0.25899572  0.67544363  0.36551812     0.25500
C1288       C  0.24448380  0.66892731  0.38141949    -0.40800
C1289       C  0.24674543  0.67709901  0.40230087     0.32400
C1290       C  0.26253433  0.69244113  0.40681888     0.14100
F1291       F  0.28801738  0.69711395  0.35423522    -0.13200
F1292       F  0.23296696  0.67117166  0.41794738    -0.13700
F1293       F  0.25768860  0.66743162  0.34534714    -0.16000
F1294       F  0.26378104  0.70108882  0.42670201    -0.14500
F1295       F  0.26259290  0.74188318  0.38631946    -0.14500
F1296       F  0.34888355  0.72699720  0.39758134    -0.15900
C1297       C  0.35365083  0.02140880  0.12727828     0.14100
C1298       C  0.33548870  0.00824234  0.12739266     0.01100
C1299       C  0.31518759  0.01759037  0.12924470     0.16100
C1300       C  0.31288625  0.03976988  0.13008930     0.25500
C1301       C  0.33097310  0.05329968  0.12909770    -0.40900
C1302       C  0.35145981  0.04374149  0.12809664     0.32500
C1303       C  0.33717639  0.98481996  0.12432589     0.01100
F1304       F  0.29742273  0.00511698  0.12992141    -0.13200
F1305       F  0.36941057  0.05591489  0.12750934    -0.13700
C1306       C  0.34649943  0.97161467  0.14002612     0.16100
C1307       C  0.34528575  0.94927671  0.13815235     0.25500
C1308       C  0.33452094  0.93994287  0.12065709    -0.40800
C1309       C  0.32627770  0.95324896  0.10443350     0.32400
C1310       C  0.32766928  0.97544642  0.10622656     0.14100
F1311       F  0.35572234  0.98033637  0.15768276    -0.13200
F1312       F  0.31666790  0.94472972  0.08686851    -0.13700
F1313       F  0.35345628  0.93684561  0.15403643    -0.16000
F1314       F  0.31923238  0.98790132  0.09049096    -0.14500
F1315       F  0.37345976  0.01266817  0.12557980    -0.14500
F1316       F  0.29275303  0.04784773  0.13132613    -0.15900
C1317       C  0.18955930  0.21569410  0.10426507     0.14100
C1318       C  0.21133297  0.22055794  0.10680897     0.01100
C1319       C  0.21760874  0.24198245  0.10894643     0.16100
C1320       C  0.20228662  0.25819092  0.11027856     0.25500
C1321       C  0.18028356  0.25325059  0.10969903    -0.40900
C1322       C  0.17410091  0.23192128  0.10561594     0.32500
C1323       C  0.22712254  0.20344362  0.11111815     0.01100
F1324       F  0.23862921  0.24702904  0.11115872    -0.13200
F1325       F  0.15311231  0.22642396  0.10472352    -0.13700
C1326       C  0.23449888  0.18970931  0.09496556     0.16100
C1327       C  0.25037931  0.17439820  0.09952472     0.25500
C1328       C  0.25897762  0.17260562  0.12038112    -0.40800
C1329       C  0.25083632  0.18606993  0.13658753     0.32400
C1330       C  0.23521466  0.20127985  0.13194372     0.14100
F1331       F  0.22673175  0.19151657  0.07472696    -0.13200
F1332       F  0.25784927  0.18456054  0.15714699    -0.13700
F1333       F  0.25768870  0.16180411  0.08344753    -0.16000
F1334       F  0.22790290  0.21403421  0.14792504    -0.14500
F1335       F  0.18318612  0.19504191  0.10225224    -0.14500
F1336       F  0.20903299  0.27861749  0.11324319    -0.15900
C1337       C  0.13594543  0.02463873  0.34665893     0.14100
C1338       C  0.12933528  0.01154269  0.32963754     0.01100
C1339       C  0.12085820  0.02090693  0.31107407     0.16100
C1340       C  0.11946421  0.04303893  0.30919635     0.25500
C1341       C  0.12661337  0.05646409  0.32592407    -0.40900
C1342       C  0.13464008  0.04698171  0.34483560     0.32500
C1343       C  0.13154303  0.98805541  0.33048899     0.01100
F1344       F  0.11381370  0.00848599  0.29466677    -0.13200
F1345       F  0.14174161  0.05925143  0.36130490    -0.13700
C1346       C  0.11813719  0.97574342  0.34359575     0.16100
C1347       C  0.11734613  0.95347811  0.34114366     0.25500
C1348       C  0.12980807  0.94337665  0.32538094    -0.40800
C1349       C  0.14421095  0.95566738  0.31328262     0.32400
C1350       C  0.14508572  0.97780231  0.31586023     0.14100
F1351       F  0.10474094  0.98541352  0.35764264    -0.13200
F1352       F  0.15703331  0.94629221  0.29849975    -0.13700
F1353       F  0.10323398  0.94204802  0.35298846    -0.16000
F1354       F  0.15844012  0.98942731  0.30332634    -0.14500
F1355       F  0.14416369  0.01579899  0.36476361    -0.14500
F1356       F  0.11084317  0.05122231  0.29094594    -0.15900
C1357       C  0.19711892  0.10414501  0.22591574     0.14100
C1358       C  0.21824386  0.10449009  0.23381420     0.01100
C1359       C  0.22167959  0.10633353  0.25599254     0.16100
C1360       C  0.20450224  0.10996959  0.26973772     0.25500
C1361       C  0.18351289  0.11129138  0.26162644    -0.40900
C1362       C  0.17984987  0.10728054  0.23977471     0.32500
C1363       C  0.23651548  0.10628305  0.21884277     0.01100
F1364       F  0.24183406  0.10579447  0.26419234    -0.13200
F1365       F  0.15975723  0.10832588  0.23149554    -0.13700
C1366       C  0.25012124  0.12410869  0.22030114     0.16100
C1367       C  0.26607467  0.12741599  0.20517129     0.25500
C1368       C  0.26860859  0.11316488  0.18791177    -0.40800
C1369       C  0.25533813  0.09502835  0.18666608     0.32400
C1370       C  0.23952276  0.09152797  0.20212728     0.14100
F1371       F  0.24717234  0.13912178  0.23571784    -0.13200
F1372       F  0.25756411  0.08078911  0.17043215    -0.13700
F1373       F  0.27811849  0.14542446  0.20672829    -0.16000
F1374       F  0.22697991  0.07388339  0.20063954    -0.14500
F1375       F  0.19326900  0.10263924  0.20456570    -0.14500
F1376       F  0.20846025  0.11302955  0.29091010    -0.15900
C1377       C  0.11026832  0.21205372  0.23950781     0.14100
C1378       C  0.10265011  0.20390694  0.22002310     0.01100
C1379       C  0.09829989  0.18200962  0.21810380     0.16100
C1380       C  0.10275638  0.16814778  0.23511394     0.25500
C1381       C  0.11208570  0.17602653  0.25412259    -0.40900
C1382       C  0.11509483  0.19823077  0.25639248     0.32500
C1383       C  0.10381519  0.21743961  0.20082479     0.01100
F1384       F  0.09105810  0.17391857  0.19926238    -0.13200
F1385       F  0.12356316  0.20652014  0.27460914    -0.13700
C1386       C  0.12148556  0.21499537  0.18728432     0.16100
C1387       C  0.12560857  0.23013895  0.17151542     0.25500
C1388       C  0.11194327  0.24777054  0.16886681    -0.40800
C1389       C  0.09343969  0.24952316  0.18141637     0.32400
C1390       C  0.08951536  0.23449475  0.19757293     0.14100
F1391       F  0.13563656  0.19877853  0.19043431    -0.13200
F1392       F  0.08018100  0.26659173  0.17912904    -0.13700
F1393       F  0.14351227  0.22814349  0.15942025    -0.16000
F1394       F  0.07245948  0.23711792  0.21068771    -0.14500
F1395       F  0.11469824  0.23321685  0.24154995    -0.14500
F1396       F  0.09951411  0.14686768  0.23230306    -0.15900
C1397       C  0.27132330  0.13716228  0.39147139     0.14100
C1398       C  0.26080501  0.12799092  0.37373644     0.01100
C1399       C  0.27287975  0.12237789  0.35562322     0.16100
C1400       C  0.29457300  0.12763009  0.35450232     0.25500
C1401       C  0.30462153  0.13834457  0.37150938    -0.40900
C1402       C  0.29312187  0.14230611  0.39035299     0.32500
C1403       C  0.23707301  0.12796779  0.37224132     0.01100
F1404       F  0.26324434  0.11369143  0.33815937    -0.13200
F1405       F  0.30247822  0.15292640  0.40686227    -0.13700
C1406       C  0.22603522  0.14756362  0.37328554     0.16100
C1407       C  0.20465323  0.14888988  0.36687915     0.25500
C1408       C  0.19384279  0.13068582  0.35943701    -0.40800
C1409       C  0.20423164  0.11075272  0.35997090     0.32400
C1410       C  0.22576155  0.10939956  0.36631975     0.14100
F1411       F  0.23646576  0.16583900  0.37865422    -0.13200
F1412       F  0.19414404  0.09298905  0.35259657    -0.13700
F1413       F  0.19480106  0.16826115  0.36672514    -0.16000
F1414       F  0.23592142  0.09021693  0.36550007    -0.14500
F1415       F  0.26014142  0.14245809  0.40928348    -0.14500
F1416       F  0.30546113  0.12354083  0.33620518    -0.15900
C1417       C  0.38019174  0.14554421  0.22676559     0.14100
C1418       C  0.37820648  0.12646418  0.23855152     0.01100
C1419       C  0.37276137  0.10748636  0.22765255     0.16100
C1420       C  0.36765816  0.10800288  0.20574400     0.25500
C1421       C  0.36800161  0.12749540  0.19453050    -0.40900
C1422       C  0.37534651  0.14597417  0.20497438     0.32500
C1423       C  0.37884495  0.12740792  0.26234199     0.01100
F1424       F  0.37114705  0.08873567  0.23848930    -0.13200
F1425       F  0.37625572  0.16491514  0.19434937    -0.13700
C1426       C  0.36071935  0.12129999  0.27418873     0.16100
C1427       C  0.35897219  0.12686331  0.29579467     0.25500
C1428       C  0.37514258  0.13876712  0.30584399    -0.40800
C1429       C  0.39382495  0.14369863  0.29451839     0.32400
C1430       C  0.39581953  0.13777154  0.27300167     0.14100
F1431       F  0.34375923  0.11185572  0.26438613    -0.13200
F1432       F  0.40938577  0.15568993  0.30381749    -0.13700
F1433       F  0.34061927  0.12232466  0.30639794    -0.16000
F1434       F  0.41370074  0.14347269  0.26214715    -0.14500
F1435       F  0.38482497  0.16429230  0.23670115    -0.14500
F1436       F  0.36045019  0.08994672  0.19605993    -0.15900
C1437       C  0.35702275  0.47649530  0.17977983     0.14100
C1438       C  0.37356301  0.48651693  0.16838487     0.01100
C1439       C  0.38948970  0.47379116  0.15889851     0.16100
C1440       C  0.38910837  0.45144737  0.16115487     0.25500
C1441       C  0.37305595  0.44150489  0.17333957    -0.40900
C1442       C  0.35690321  0.45422643  0.18245022     0.32500
C1443       C  0.37508849  0.51025679  0.16807120     0.01100
F1444       F  0.40567930  0.48307295  0.14786637    -0.13200
F1445       F  0.34110919  0.44507268  0.19414940    -0.13700
C1446       C  0.39119614  0.52053250  0.17992936     0.16100
C1447       C  0.39169295  0.54287888  0.18145904     0.25500
C1448       C  0.37619991  0.55553687  0.17089823    -0.40800
C1449       C  0.36049067  0.54519806  0.15837586     0.32400
C1450       C  0.35984601  0.52276482  0.15714638     0.14100
F1451       F  0.40611043  0.50883256  0.19063618    -0.13200
F1452       F  0.34523392  0.55673593  0.14799110    -0.13700
F1453       F  0.40743642  0.55212344  0.19328117    -0.16000
F1454       F  0.34421318  0.51321108  0.14543834    -0.14500
F1455       F  0.34148844  0.48840621  0.18913746    -0.14500
F1456       F  0.40511924  0.43962986  0.15249802    -0.15900
C1457       C  0.38625670  0.21907631  0.13575609     0.14100
C1458       C  0.37195285  0.23590596  0.13108303     0.01100
C1459       C  0.35209498  0.23105478  0.12165900     0.16100
C1460       C  0.34593957  0.20983175  0.11864468     0.25500
C1461       C  0.35921997  0.19294880  0.12554789    -0.40900
C1462       C  0.37994634  0.19769745  0.13297169     0.32500
C1463       C  0.37606989  0.25805748  0.13871458     0.01100
F1464       F  0.33769505  0.24677794  0.11735695    -0.13200
F1465       F  0.39325265  0.18179150  0.13952018    -0.13700
C1466       C  0.37417920  0.27563646  0.12475566     0.16100
C1467       C  0.37382659  0.29658957  0.13277941     0.25500
C1468       C  0.37530275  0.30033961  0.15498095    -0.40800
C1469       C  0.37876983  0.28272842  0.16872181     0.32400
C1470       C  0.37896462  0.26186775  0.16070195     0.14100
F1471       F  0.37167180  0.27243316  0.10340250    -0.13200
F1472       F  0.38114594  0.28557093  0.19015661    -0.13700
F1473       F  0.37062429  0.31302141  0.11892127    -0.16000
F1474       F  0.38038249  0.24529862  0.17470961    -0.14500
F1475       F  0.40577951  0.22333264  0.14433510    -0.14500
F1476       F  0.32609608  0.20576004  0.11067743    -0.15900
C1477       C  0.27315106  0.38414493  0.13688749     0.14100
C1478       C  0.26279838  0.36477538  0.13193231     0.01100
C1479       C  0.27475246  0.34574346  0.13182739     0.16100
C1480       C  0.29624037  0.34580197  0.13808398     0.25500
C1481       C  0.30629847  0.36492470  0.14434918    -0.40900
C1482       C  0.29485859  0.38425003  0.14286753     0.32500
C1483       C  0.23914025  0.36352283  0.13013120     0.01100
F1484       F  0.26512269  0.32678573  0.12740720    -0.13200
F1485       F  0.30412195  0.40289896  0.14900894    -0.13700
C1486       C  0.22927460  0.35579728  0.11138191     0.16100
C1487       C  0.20750082  0.35028366  0.11138276     0.25500
C1488       C  0.19545664  0.35206775  0.13024976    -0.40800
C1489       C  0.20506261  0.36085818  0.14861683     0.32400
C1490       C  0.22665046  0.36672056  0.14850688     0.14100
F1491       F  0.24103805  0.35245628  0.09347756    -0.13200
F1492       F  0.19376892  0.36268880  0.16704612    -0.13700
F1493       F  0.19870108  0.34145263  0.09356274    -0.16000
F1494       F  0.23580949  0.37384132  0.16691369    -0.14500
F1495       F  0.26193093  0.40274171  0.13704397    -0.14500
F1496       F  0.30695565  0.32692007  0.13922932    -0.15900
C1497       C  0.37906015  0.30928248  0.28481405     0.14100
C1498       C  0.39548533  0.29441940  0.28120819     0.01100
C1499       C  0.40880559  0.29685038  0.26330250     0.16100
C1500       C  0.40507450  0.31348355  0.24865036     0.25500
C1501       C  0.38774491  0.32749547  0.25163280    -0.40900
C1502       C  0.37506097  0.32553010  0.27001391     0.32500
C1503       C  0.39611799  0.27482203  0.29438250     0.01100
F1504       F  0.42464662  0.28249999  0.25949358    -0.13200
F1505       F  0.35806386  0.33871069  0.27303434    -0.13700
C1506       C  0.38630932  0.25623085  0.28656072     0.16100
C1507       C  0.38209906  0.23908865  0.30026010     0.25500
C1508       C  0.38768923  0.24022202  0.32212153    -0.40800
C1509       C  0.39901581  0.25831310  0.32952109     0.32400
C1510       C  0.40301385  0.27554262  0.31576161     0.14100
F1511       F  0.37941018  0.25531375  0.26593973    -0.13200
F1512       F  0.40491217  0.26005174  0.35038961    -0.13700
F1513       F  0.37180033  0.22172277  0.29224826    -0.16000
F1514       F  0.41260309  0.29339884  0.32355934    -0.14500
F1515       F  0.36586315  0.30704498  0.30187989    -0.14500
F1516       F  0.41722728  0.31485375  0.23074593    -0.15900
C1517       C  0.18154625  0.47554717  0.38316717     0.14100
C1518       C  0.16533886  0.48484597  0.37064189     0.01100
C1519       C  0.15038552  0.47151863  0.36038927     0.16100
C1520       C  0.15206290  0.44914840  0.36213363     0.25500
C1521       C  0.16876316  0.43975773  0.37421076    -0.40900
C1522       C  0.18325155  0.45336300  0.38498836     0.32500
C1523       C  0.16500553  0.50843294  0.36784709     0.01100
F1524       F  0.13459873  0.48014655  0.34813677    -0.13200
F1525       F  0.19909662  0.44528055  0.39755909    -0.13700
C1526       C  0.18258395  0.51858968  0.35836480     0.16100
C1527       C  0.18426967  0.54085858  0.35846466     0.25500
C1528       C  0.16838502  0.55361067  0.36817558    -0.40800
C1529       C  0.15006341  0.54343867  0.37647129     0.32400
C1530       C  0.14843404  0.52101244  0.37633940     0.14100
F1531       F  0.19849998  0.50680906  0.34946603    -0.13200
F1532       F  0.13426421  0.55505654  0.38573817    -0.13700
F1533       F  0.20171092  0.54989108  0.34925583    -0.16000
F1534       F  0.13124224  0.51155204  0.38554976    -0.14500
F1535       F  0.19584479  0.48807942  0.39372436    -0.14500
F1536       F  0.13774634  0.43674787  0.35147768    -0.15900
C1537       C  0.12706170  0.37633937  0.27406454     0.14100
C1538       C  0.12910684  0.35724500  0.26221704     0.01100
C1539       C  0.13689962  0.33888126  0.27261045     0.16100
C1540       C  0.14300214  0.33958727  0.29406090     0.25500
C1541       C  0.14184543  0.35877297  0.30582021    -0.40900
C1542       C  0.13331523  0.37708310  0.29579171     0.32500
C1543       C  0.12466410  0.35612103  0.23876680     0.01100
F1544       F  0.13967927  0.32033700  0.26164691    -0.13200
F1545       F  0.13209846  0.39585421  0.30660909    -0.13700
C1546       C  0.13687704  0.36822005  0.22424267     0.16100
C1547       C  0.13689219  0.36308657  0.20233930     0.25500
C1548       C  0.12490947  0.34564293  0.19472525    -0.40800
C1549       C  0.11144454  0.33468054  0.20894970     0.32400
C1550       C  0.11110185  0.34004919  0.23068859     0.14100
F1551       F  0.15035488  0.38361885  0.23151117    -0.13200
F1552       F  0.09958223  0.31786397  0.20197885    -0.13700
F1553       F  0.15029187  0.37370082  0.18900410    -0.16000
F1554       F  0.09868280  0.32846292  0.24418145    -0.14500
F1555       F  0.11936270  0.39428085  0.26451298    -0.14500
F1556       F  0.15064554  0.32140595  0.30326595    -0.15900
C1557       C  0.14193757  0.26347161  0.38771108     0.14100
C1558       C  0.12195381  0.25947108  0.37814214     0.01100
C1559       C  0.10888767  0.27693620  0.37230237     0.16100
C1560       C  0.11668092  0.29792795  0.37390256     0.25500
C1561       C  0.13761088  0.30159607  0.38131156    -0.40900
C1562       C  0.14965698  0.28433299  0.38928471     0.32500
C1563       C  0.11739094  0.23759939  0.37009672     0.01100
F1564       F  0.08937188  0.27352313  0.36331927    -0.13200
F1565       F  0.16981878  0.28752150  0.39678575    -0.13700
C1566       C  0.11820890  0.21969397  0.38377361     0.16100
C1567       C  0.11982498  0.19895546  0.37528200     0.25500
C1568       C  0.12071360  0.19591352  0.35298002    -0.40800
C1569       C  0.11777026  0.21374084  0.33946033     0.32400
C1570       C  0.11630378  0.23430869  0.34789064     0.14100
F1571       F  0.11878711  0.22242343  0.40531895    -0.13200
F1572       F  0.11746965  0.21142629  0.31786557    -0.13700
F1573       F  0.12220223  0.18214424  0.38884064    -0.16000
F1574       F  0.11586821  0.25116498  0.33416536    -0.14500
F1575       F  0.15511006  0.24705486  0.39320035    -0.14500
F1576       F  0.10476589  0.31431626  0.36599491    -0.15900
C1577       C  0.27720937  0.30762701  0.39248755     0.14100
C1578       C  0.27136758  0.28690713  0.39911036     0.01100
C1579       C  0.25017536  0.28316847  0.40561711     0.16100
C1580       C  0.23469390  0.29919695  0.40342329     0.25500
C1581       C  0.24028503  0.31940282  0.39532319    -0.40900
C1582       C  0.26182777  0.32382039  0.39090842     0.32500
C1583       C  0.28659056  0.26883042  0.39649316     0.01100
F1584       F  0.24423763  0.26363694  0.41300697    -0.13200
F1585       F  0.26759209  0.34312228  0.38281671    -0.13700
C1586       C  0.30745884  0.26993168  0.40485362     0.16100
C1587       C  0.32267751  0.25437330  0.39958083     0.25500
C1588       C  0.31725574  0.23715291  0.38597591    -0.40800
C1589       C  0.29587646  0.23541010  0.37880111     0.32400
C1590       C  0.28085563  0.25117328  0.38378268     0.14100
F1591       F  0.31326658  0.28639471  0.41778171    -0.13200
F1592       F  0.28947476  0.21879481  0.36634625    -0.13700
F1593       F  0.34287885  0.25667777  0.40729577    -0.16000
F1594       F  0.26095233  0.24973289  0.37509679    -0.14500
F1595       F  0.29736936  0.31171186  0.38561187    -0.14500
F1596       F  0.21401694  0.29467265  0.40817394    -0.15900
C1597       C  0.28174594  0.39427103  0.25353902     0.14100
C1598       C  0.28656880  0.39201266  0.27541356     0.01100
C1599       C  0.30798874  0.38943419  0.28182537     0.16100
C1600       C  0.32415542  0.38758310  0.26650347     0.25500
C1601       C  0.31906205  0.38797261  0.24452964    -0.40900
C1602       C  0.29783364  0.39213171  0.23820221     0.32500
C1603       C  0.26915069  0.38880155  0.29107013     0.01100
F1604       F  0.31300923  0.38684268  0.30283722    -0.13200
F1605       F  0.29253265  0.39326942  0.21712964    -0.13700
C1606       C  0.25574274  0.37097690  0.28885841     0.16100
C1607       C  0.24044302  0.36632128  0.30433604     0.25500
C1608       C  0.23820963  0.37936868  0.32265985    -0.40800
C1609       C  0.25127461  0.39772256  0.32446793     0.32400
C1610       C  0.26667141  0.40229889  0.30883876     0.14100
F1611       F  0.25807759  0.35744941  0.27202317    -0.13200
F1612       F  0.24954601  0.41104709  0.34151873    -0.13700
F1613       F  0.22812616  0.34868310  0.30139090    -0.16000
F1614       F  0.27929192  0.41980928  0.31112257    -0.14500
F1615       F  0.26122387  0.39737554  0.24702200    -0.14500
F1616       F  0.34444585  0.38343691  0.27316530    -0.15900
C1617       C  0.47428043  0.61821627  0.15245272     0.14100
C1618       C  0.48643372  0.62856287  0.16833067     0.01100
C1619       C  0.47585255  0.63929875  0.18494381     0.16100
C1620       C  0.45357153  0.63877285  0.18634201     0.25500
C1621       C  0.44131579  0.62749781  0.17109206    -0.40900
C1622       C  0.45187732  0.61773095  0.15376159     0.32500
C1623       C  0.51007454  0.62658717  0.16890018     0.01100
F1624       F  0.48720954  0.64989652  0.20017442    -0.13200
F1625       F  0.44066977  0.60664445  0.13879306    -0.13700
C1626       C  0.52290879  0.63502685  0.15255709     0.16100
C1627       C  0.54531502  0.63370964  0.15391870     0.25500
C1628       C  0.55528493  0.62379285  0.17171089    -0.40800
C1629       C  0.54211630  0.61493959  0.18777309     0.32400
C1630       C  0.51988370  0.61637273  0.18635913     0.14100
F1631       F  0.51375035  0.64511086  0.13557820    -0.13200
F1632       F  0.55061118  0.60483996  0.20509390    -0.13700
F1633       F  0.55714395  0.64256343  0.13806091    -0.16000
F1634       F  0.50781854  0.60765446  0.20214222    -0.14500
F1635       F  0.48416096  0.60755121  0.13635789    -0.14500
F1636       F  0.44401303  0.64912064  0.20285784    -0.15900
C1637       C  0.74037912  0.62805053  0.28681546     0.14100
C1638       C  0.72790209  0.60949582  0.28771623     0.01100
C1639       C  0.73106712  0.59497677  0.30462370     0.16100
C1640       C  0.74624264  0.59929209  0.32072991     0.25500
C1641       C  0.75836080  0.61833821  0.32020546    -0.40900
C1642       C  0.75543823  0.63240457  0.30266941     0.32500
C1643       C  0.71065954  0.60671240  0.27164273     0.01100
F1644       F  0.71936609  0.57673327  0.30558570    -0.13200
F1645       F  0.76679921  0.65081398  0.30084996    -0.13700
C1646       C  0.71568558  0.60637808  0.24974260     0.16100
C1647       C  0.69973603  0.60974698  0.23434902     0.25500
C1648       C  0.67843380  0.61334845  0.24060386    -0.40800
C1649       C  0.67313804  0.61179766  0.26244820     0.32400
C1650       C  0.68917207  0.60860835  0.27785237     0.14100
F1651       F  0.73630851  0.60416151  0.24336119    -0.13200
F1652       F  0.65277476  0.61527688  0.26908906    -0.13700
F1653       F  0.70526279  0.61033187  0.21335825    -0.16000
F1654       F  0.68396757  0.60933508  0.29891760    -0.14500
F1655       F  0.73732889  0.64257934  0.27090534    -0.14500
F1656       F  0.74873560  0.58502482  0.33693431    -0.15900
C1657       C  0.52000213  0.80932139  0.36733252     0.14100
C1658       C  0.50954259  0.82833581  0.37299029     0.01100
C1659       C  0.52179351  0.84677619  0.37688248     0.16100
C1660       C  0.54424357  0.84599078  0.37589791     0.25500
C1661       C  0.55485892  0.82669329  0.37091414    -0.40900
C1662       C  0.54230577  0.80848962  0.36616000     0.32500
C1663       C  0.48589272  0.82846152  0.37533752     0.01100
F1664       F  0.51203569  0.86535441  0.38242313    -0.13200
F1665       F  0.55153505  0.78968536  0.36041532    -0.13700
C1666       C  0.47620601  0.81550207  0.39089368     0.16100
C1667       C  0.45390800  0.81392336  0.39202992     0.25500
C1668       C  0.44072774  0.82528051  0.37757698    -0.40800
C1669       C  0.45047182  0.83892475  0.36251840     0.32400
C1670       C  0.47286123  0.84043203  0.36138553     0.14100
F1671       F  0.48842838  0.80422115  0.40495393    -0.13200
F1672       F  0.43839584  0.85005519  0.34823597    -0.13700
F1673       F  0.44521454  0.80132244  0.40741378    -0.16000
F1674       F  0.48185021  0.85286996  0.34605566    -0.14500
F1675       F  0.50852630  0.79140543  0.36296466    -0.14500
F1676       F  0.55552102  0.86394005  0.38056943    -0.15900
C1677       C  0.60833210  0.74923175  0.27797059     0.14100
C1678       C  0.60059468  0.72953073  0.28547544     0.01100
C1679       C  0.59549127  0.72732359  0.30718960     0.16100
C1680       C  0.60000264  0.74375647  0.32160084     0.25500
C1681       C  0.60970355  0.76286777  0.31451582    -0.40900
C1682       C  0.61280359  0.76581069  0.29234666     0.32500
C1683       C  0.60159738  0.71035756  0.27168221     0.01100
F1684       F  0.58742475  0.70861365  0.31467360    -0.13200
F1685       F  0.62106698  0.78432838  0.28460841    -0.13700
C1686       C  0.61561836  0.69367371  0.27740790     0.16100
C1687       C  0.61928661  0.67678866  0.26336795     0.25500
C1688       C  0.60892846  0.67620397  0.24346551    -0.40800
C1689       C  0.59407505  0.69220608  0.23805387     0.32400
C1690       C  0.59046491  0.70930098  0.25209553     0.14100
F1691       F  0.62692152  0.69449214  0.29600512    -0.13200
F1692       F  0.58412723  0.69193417  0.21869583    -0.13700
F1693       F  0.63383426  0.66152030  0.26870962    -0.16000
F1694       F  0.57673239  0.72513965  0.24631018    -0.14500
F1695       F  0.61316125  0.75185483  0.25696143    -0.14500
F1696       F  0.59620384  0.74020164  0.34268525    -0.15900
C1697       C  0.68665129  0.72601490  0.40001710     0.14100
C1698       C  0.70729679  0.72616389  0.39119562     0.01100
C1699       C  0.71293439  0.74277485  0.37712214     0.16100
C1700       C  0.69838008  0.75895232  0.37203333     0.25500
C1701       C  0.67752254  0.75875537  0.38052961    -0.40900
C1702       C  0.67187555  0.74209251  0.39470131     0.32500
C1703       C  0.72286893  0.70866130  0.39543463     0.01100
F1704       F  0.73243164  0.74296327  0.36760296    -0.13200
F1705       F  0.65186191  0.74092163  0.40296822    -0.13700
C1706       C  0.71773364  0.68730945  0.39045046     0.16100
C1707       C  0.73388156  0.67180517  0.38928794     0.25500
C1708       C  0.75538243  0.67758111  0.39257657    -0.40800
C1709       C  0.76017109  0.69831976  0.39973114     0.32400
C1710       C  0.74399774  0.71364682  0.40145976     0.14100
F1711       F  0.69749564  0.68185251  0.38470436    -0.13200
F1712       F  0.78070497  0.70404385  0.40392047    -0.13700
F1713       F  0.72876111  0.65175716  0.38269069    -0.16000
F1714       F  0.74920138  0.73380513  0.40763025    -0.14500
F1715       F  0.68074162  0.71026302  0.41373124    -0.14500
F1716       F  0.70481213  0.77473508  0.35858665    -0.15900
C1717       C  0.62418239  0.72296682  0.11748593     0.14100
C1718       C  0.61901643  0.74009054  0.13119219     0.01100
C1719       C  0.61278301  0.73552215  0.15231731     0.16100
C1720       C  0.61348189  0.71456583  0.16006164     0.25500
C1721       C  0.62067391  0.69772536  0.14696544    -0.40900
C1722       C  0.62512188  0.70196128  0.12533336     0.32500
C1723       C  0.62388256  0.76256931  0.12502788     0.01100
F1724       F  0.60787423  0.75154012  0.16612458    -0.13200
F1725       F  0.63219837  0.68614108  0.11228000    -0.13700
C1726       C  0.60913049  0.77927854  0.12858209     0.16100
C1727       C  0.61580571  0.80072013  0.12784129     0.25500
C1728       C  0.63726111  0.80565596  0.12337628    -0.40800
C1729       C  0.65128196  0.78905325  0.11754530     0.32400
C1730       C  0.64478790  0.76777690  0.11864582     0.14100
F1731       F  0.58863171  0.77478898  0.13407053    -0.13200
F1732       F  0.67191936  0.79336910  0.11234274    -0.13700
F1733       F  0.60186405  0.81640454  0.13339663    -0.16000
F1734       F  0.65966513  0.75225585  0.11553044    -0.14500
F1735       F  0.62968644  0.72677897  0.09683609    -0.14500
F1736       F  0.60822824  0.71091371  0.18081858    -0.15900
C1737       C  0.62345491  0.89523982  0.22426133     0.14100
C1738       C  0.61779784  0.87677418  0.23582691     0.01100
C1739       C  0.61491974  0.85742743  0.22476472     0.16100
C1740       C  0.61979052  0.85602962  0.20302762     0.25500
C1741       C  0.62749940  0.87395513  0.19191602    -0.40900
C1742       C  0.62812184  0.89387247  0.20232756     0.32500
C1743       C  0.61904019  0.87622586  0.25954300     0.01100
F1744       F  0.60963508  0.83931088  0.23550260    -0.13200
F1745       F  0.63540681  0.91145090  0.19189312    -0.13700
C1746       C  0.60146702  0.86950781  0.27182687     0.16100
C1747       C  0.60431073  0.86351094  0.29330861     0.25500
C1748       C  0.62482838  0.86379123  0.30259668    -0.40800
C1749       C  0.64205467  0.87195819  0.29076349     0.32400
C1750       C  0.63915506  0.87830727  0.26948372     0.14100
F1751       F  0.58189787  0.86736179  0.26257697    -0.13200
F1752       F  0.66199714  0.87255633  0.29945458    -0.13700
F1753       F  0.58746782  0.85551796  0.30436871    -0.16000
F1754       F  0.65645433  0.88453571  0.25797971    -0.14500
F1755       F  0.62598427  0.91418826  0.23454718    -0.14500
F1756       F  0.61873766  0.83668581  0.19320184    -0.15900
C1757       C  0.97478790  0.68895149  0.10543711     0.14100
C1758       C  0.98505660  0.67353836  0.11823163     0.01100
C1759       C  0.97254658  0.65900902  0.12989355     0.16100
C1760       C  0.95014885  0.66057449  0.12962302     0.25500
C1761       C  0.93980726  0.67684589  0.11774993    -0.40900
C1762       C  0.95250155  0.69067428  0.10522820     0.32500
C1763       C  0.00872739  0.67393036  0.12051735     0.01100
F1764       F  0.98203177  0.64389943  0.14234256    -0.13200
F1765       F  0.94346252  0.70607691  0.09279272    -0.13700
C1766       C  0.01877943  0.69275658  0.12749422     0.16100
C1767       C  0.04103382  0.69412210  0.12844894     0.25500
C1768       C  0.05393622  0.67660465  0.12247524    -0.40800
C1769       C  0.04382840  0.65735046  0.11641366     0.32400
C1770       C  0.02140763  0.65606932  0.11538341     0.14100
F1771       F  0.00694636  0.70998954  0.13338658    -0.13200
F1772       F  0.05557023  0.64002035  0.11066283    -0.13700
F1773       F  0.04990018  0.71274041  0.13527750    -0.16000
F1774       F  0.01212590  0.63765994  0.10857436    -0.14500
F1775       F  0.98645440  0.70263316  0.09328572    -0.14500
F1776       F  0.93871507  0.64660113  0.14163136    -0.15900
C1777       C  0.77852127  0.75389742  0.10506117     0.14100
C1778       C  0.78299597  0.77587616  0.10698371     0.01100
C1779       C  0.80442027  0.78244905  0.10928856     0.16100
C1780       C  0.82082184  0.76729352  0.11102716     0.25500
C1781       C  0.81599710  0.74532417  0.11121443    -0.40900
C1782       C  0.79479167  0.73876542  0.10758490     0.32500
C1783       C  0.76524814  0.79152379  0.10939171     0.01100
F1784       F  0.80935481  0.80345937  0.11161508    -0.13200
F1785       F  0.78969862  0.71766016  0.10718670    -0.13700
C1786       C  0.74928559  0.78773654  0.12471196     0.16100
C1787       C  0.73327494  0.80277800  0.12835159     0.25500
C1788       C  0.73319674  0.82248314  0.11735833    -0.40800
C1789       C  0.74895881  0.82619547  0.10173668     0.32400
C1790       C  0.76471161  0.81075027  0.09765050     0.14100
F1791       F  0.74966195  0.76979181  0.13697529    -0.13200
F1792       F  0.74965032  0.84503361  0.09095189    -0.13700
F1793       F  0.71799385  0.79803633  0.14300022    -0.16000
F1794       F  0.77957534  0.81469574  0.08237663    -0.14500
F1795       F  0.75817637  0.74703113  0.10171365    -0.14500
F1796       F  0.84115609  0.77416263  0.11441896    -0.15900
C1797       C  0.77222006  0.63505338  0.11238393     0.14100
C1798       C  0.76028203  0.63309794  0.13130783     0.01100
C1799       C  0.77051924  0.63608824  0.15110117     0.16100
C1800       C  0.79188510  0.64254028  0.15199923     0.25500
C1801       C  0.80356967  0.64596143  0.13307844    -0.40900
C1802       C  0.79383904  0.64122974  0.11325792     0.32500
C1803       C  0.73661728  0.63177901  0.13087027     0.01100
F1804       F  0.75929064  0.63434868  0.16958281    -0.13200
F1805       F  0.80466312  0.64427211  0.09471609    -0.13700
C1806       C  0.72594941  0.61299851  0.13708830     0.16100
C1807       C  0.70402428  0.61354563  0.14196600     0.25500
C1808       C  0.69271010  0.63299118  0.14112880    -0.40800
C1809       C  0.70313238  0.65139657  0.13355434     0.32400
C1810       C  0.72483823  0.65074313  0.12828995     0.14100
F1811       F  0.73707316  0.59453559  0.13981980    -0.13200
F1812       F  0.69256570  0.67036533  0.13255640    -0.13700
F1813       F  0.69439248  0.59561271  0.14946917    -0.16000
F1814       F  0.73484684  0.66911304  0.12250919    -0.14500
F1815       F  0.76262728  0.63210298  0.09308260    -0.14500
F1816       F  0.80088755  0.64644380  0.17143281    -0.15900
C1817       C  0.84491875  0.63225289  0.26494457     0.14100
C1818       C  0.86680798  0.63473183  0.26067680     0.01100
C1819       C  0.88136797  0.63559287  0.27790166     0.16100
C1820       C  0.87397613  0.63519314  0.29910101     0.25500
C1821       C  0.85188949  0.63422320  0.30329408    -0.40900
C1822       C  0.83753630  0.63200824  0.28597961     0.32500
C1823       C  0.87350119  0.63986847  0.23852132     0.01100
F1824       F  0.90262394  0.63780550  0.27414656    -0.13200
F1825       F  0.81614465  0.63038917  0.28938009    -0.13700
C1826       C  0.88089861  0.66055515  0.23393999     0.16100
C1827       C  0.88167353  0.66783206  0.21282251     0.25500
C1828       C  0.87501303  0.65456179  0.19584351    -0.40800
C1829       C  0.86967142  0.63315061  0.20026124     0.32400
C1830       C  0.86881348  0.62589917  0.22148974     0.14100
F1831       F  0.88537138  0.67445407  0.25003671    -0.13200
F1832       F  0.86330533  0.61985469  0.18429420    -0.13700
F1833       F  0.88761895  0.68838578  0.20910106    -0.16000
F1834       F  0.86193648  0.60571571  0.22552366    -0.14500
F1835       F  0.83044203  0.63171054  0.24867346    -0.14500
F1836       F  0.88825049  0.63729391  0.31539444    -0.15900
C1837       C  0.97587330  0.88537849  0.30403594     0.14100
C1838       C  0.98657251  0.88427636  0.32383634     0.01100
C1839       C  0.97434235  0.88274005  0.34261865     0.16100
C1840       C  0.95186861  0.88218966  0.34161196     0.25500
C1841       C  0.94104728  0.88316747  0.32171512    -0.40900
C1842       C  0.95349451  0.88483029  0.30294305     0.32500
C1843       C  0.01046068  0.88442229  0.32457726     0.01100
F1844       F  0.98416734  0.88214869  0.36203131    -0.13200
F1845       F  0.94413298  0.88552113  0.28329865    -0.13700
C1846       C  0.02193803  0.90135393  0.31529077     0.16100
C1847       C  0.04429507  0.90054350  0.31387331     0.25500
C1848       C  0.05582115  0.88280160  0.32185979    -0.40800
C1849       C  0.04438220  0.86629740  0.33204311     0.32400
C1850       C  0.02193729  0.86707213  0.33330743     0.14100
F1851       F  0.01143032  0.91870959  0.30743539    -0.13200
F1852       F  0.05479738  0.84887464  0.33983071    -0.13700
F1853       F  0.05467779  0.91723731  0.30468336    -0.16000
F1854       F  0.01133337  0.85036227  0.34217679    -0.14500
F1855       F  0.98717999  0.88647395  0.28555687    -0.14500
F1856       F  0.94077389  0.88095578  0.36019838    -0.15900
C1857       C  0.89526945  0.79097429  0.23927437     0.14100
C1858       C  0.89725723  0.79908829  0.21842568     0.01100
C1859       C  0.89728378  0.82132898  0.21520650     0.16100
C1860       C  0.89371820  0.83522733  0.23237507     0.25500
C1861       C  0.88983546  0.82700597  0.25296864    -0.40900
C1862       C  0.89148963  0.80480946  0.25640225     0.32500
C1863       C  0.89476525  0.78445885  0.20002195     0.01100
F1864       F  0.89919188  0.82946914  0.19515351    -0.13200
F1865       F  0.88829262  0.79640413  0.27617049    -0.13700
C1866       C  0.87567447  0.78528344  0.18813564     0.16100
C1867       C  0.87115766  0.76963773  0.17293156     0.25500
C1868       C  0.88573684  0.75297688  0.16912245    -0.40800
C1869       C  0.90536481  0.75265481  0.18018709     0.32400
C1870       C  0.90976720  0.76823317  0.19577062     0.14100
F1871       F  0.86072003  0.80048857  0.19228548    -0.13200
F1872       F  0.91952946  0.73651476  0.17696716    -0.13700
F1873       F  0.85211292  0.77031802  0.16239345    -0.16000
F1874       F  0.92822957  0.76707242  0.20723606    -0.14500
F1875       F  0.89503925  0.76953668  0.24275650    -0.14500
F1876       F  0.89203138  0.85652314  0.22844924    -0.15900
C1877       C  0.73991940  0.89299302  0.22036520     0.14100
C1878       C  0.76171814  0.89185596  0.21502446     0.01100
C1879       C  0.76757359  0.88960548  0.19347075     0.16100
C1880       C  0.75192971  0.88737886  0.17762791     0.25500
C1881       C  0.73009234  0.88708453  0.18310211    -0.40900
C1882       C  0.72421676  0.89052371  0.20455494     0.32500
C1883       C  0.77824730  0.89000678  0.23194506     0.01100
F1884       F  0.78848331  0.88783205  0.18792870    -0.13200
F1885       F  0.70329695  0.89087085  0.21033538    -0.13700
C1886       C  0.77711211  0.87306827  0.24661223     0.16100
C1887       C  0.79379646  0.86932137  0.26098269     0.25500
C1888       C  0.81233369  0.88224668  0.26085404    -0.40800
C1889       C  0.81306850  0.89976694  0.24658159     0.32400
C1890       C  0.79612797  0.90358071  0.23230773     0.14100
F1891       F  0.76031304  0.85931336  0.24622907    -0.13200
F1892       F  0.83027803  0.91295610  0.24605381    -0.13700
F1893       F  0.79192550  0.85236628  0.27445520    -0.16000
F1894       F  0.79735951  0.92031881  0.21850711    -0.14500
F1895       F  0.73386839  0.89561209  0.24104832    -0.14500
F1896       F  0.75828569  0.88374776  0.15719090    -0.15900
C1897       C  0.77172588  0.84790382  0.36685933     0.14100
C1898       C  0.76145900  0.86774731  0.36956486     0.01100
C1899       C  0.77349693  0.88662065  0.36707597     0.16100
C1900       C  0.79512839  0.88560625  0.36100779     0.25500
C1901       C  0.80496476  0.86569944  0.35722722    -0.40900
C1902       C  0.79317799  0.84690372  0.36083242     0.32500
C1903       C  0.73781966  0.86821125  0.37256351     0.01100
F1904       F  0.76411179  0.90601237  0.36979362    -0.13200
F1905       F  0.80224585  0.82741734  0.35765328    -0.13700
C1906       C  0.72828531  0.85586362  0.38878901     0.16100
C1907       C  0.70639360  0.85113059  0.38797353     0.25500
C1908       C  0.69359998  0.85908769  0.37124832    -0.40800
C1909       C  0.70262123  0.87316265  0.35628378     0.32400
C1910       C  0.72458271  0.87769835  0.35690107     0.14100
F1911       F  0.74051163  0.84702749  0.40449425    -0.13200
F1912       F  0.69057287  0.88081890  0.33984027    -0.13700
F1913       F  0.69802169  0.83735460  0.40249945    -0.16000
F1914       F  0.73321380  0.88954860  0.34090727    -0.14500
F1915       F  0.76056575  0.82936458  0.36858747    -0.14500
F1916       F  0.80594898  0.90404795  0.35732980    -0.15900
C1917       C  0.88715425  0.76744328  0.35069484     0.14100
C1918       C  0.87970685  0.76347375  0.37152995     0.01100
C1919       C  0.87505031  0.78110128  0.38483104     0.16100
C1920       C  0.87559545  0.80207092  0.37667541     0.25500
C1921       C  0.88094826  0.80571655  0.35513402    -0.40900
C1922       C  0.88792203  0.78829850  0.34268169     0.32500
C1923       C  0.87305485  0.74131550  0.37748797     0.01100
F1924       F  0.86848861  0.77788864  0.40526610    -0.13200
F1925       F  0.89390238  0.79130105  0.32202931    -0.13700
C1926       C  0.88686368  0.72364144  0.37477191     0.16100
C1927       C  0.87881168  0.70261799  0.37514882     0.25500
C1928       C  0.85685234  0.69899411  0.37829013    -0.40800
C1929       C  0.84355034  0.71656753  0.38295654     0.32400
C1930       C  0.85148761  0.73742291  0.38245969     0.14100
F1931       F  0.90789651  0.72680575  0.37049970    -0.13200
F1932       F  0.82235255  0.71363521  0.38659646    -0.13700
F1933       F  0.89207309  0.68605704  0.37056707    -0.16000
F1934       F  0.83751125  0.75389213  0.38481717    -0.14500
F1935       F  0.89157447  0.75100015  0.33723045    -0.14500
F1936       F  0.86883116  0.81846413  0.38917848    -0.15900
C1937       C  0.52090204  0.18632882  0.36288305     0.14100
C1938       C  0.51094874  0.16857224  0.37234919     0.01100
C1939       C  0.52377042  0.15196011  0.38055042     0.16100
C1940       C  0.54617747  0.15357867  0.38018195     0.25500
C1941       C  0.55616145  0.17194402  0.37170550    -0.40900
C1942       C  0.54317521  0.18806505  0.36262186     0.32500
C1943       C  0.48730011  0.16841744  0.37487989     0.01100
F1944       F  0.51460915  0.13462441  0.38983052    -0.13200
F1945       F  0.55197919  0.20567342  0.35348068    -0.13700
C1946       C  0.47455769  0.15208548  0.36608873     0.16100
C1947       C  0.45213923  0.15312546  0.36743195     0.25500
C1948       C  0.44204958  0.17061664  0.37754705    -0.40800
C1949       C  0.45505276  0.18650796  0.38697852     0.32400
C1950       C  0.47730806  0.18535492  0.38568619     0.14100
F1951       F  0.48377519  0.13551803  0.35553459    -0.13200
F1952       F  0.44632292  0.20330362  0.39760319    -0.13700
F1953       F  0.44038283  0.13734507  0.35823172    -0.16000
F1954       F  0.48920799  0.20093518  0.39506990    -0.14500
F1955       F  0.50894633  0.20223803  0.35407293    -0.14500
F1956       F  0.55800493  0.13760409  0.38901568    -0.15900
C1957       C  0.63844210  0.47641925  0.15582481     0.14100
C1958       C  0.62697416  0.48940701  0.17011368     0.01100
C1959       C  0.61336621  0.47979490  0.18512012     0.16100
C1960       C  0.61153267  0.45758467  0.18618698     0.25500
C1961       C  0.62323129  0.44443452  0.17218512    -0.40900
C1962       C  0.63655718  0.45406839  0.15680607     0.32500
C1963       C  0.62932101  0.51298230  0.17004219     0.01100
F1964       F  0.60179504  0.49201555  0.19881793    -0.13200
F1965       F  0.64849688  0.44186582  0.14341933    -0.13700
C1966       C  0.62212533  0.52527858  0.15260906     0.16100
C1967       C  0.62153012  0.54767576  0.15399854     0.25500
C1968       C  0.62819783  0.55811737  0.17289886    -0.40800
C1969       C  0.63659045  0.54563961  0.18981596     0.32400
C1970       C  0.63705697  0.52337071  0.18839232     0.14100
F1971       F  0.61458746  0.51554254  0.13469137    -0.13200
F1972       F  0.64409631  0.55492145  0.20800283    -0.13700
F1973       F  0.61337956  0.55897765  0.13728676    -0.16000
F1974       F  0.64462875  0.51183744  0.20523345    -0.14500
F1975       F  0.65203894  0.48535082  0.14149415    -0.14500
F1976       F  0.59814740  0.44893161  0.20089610    -0.15900
C1977       C  0.52291942  0.37511583  0.15461173     0.14100
C1978       C  0.51155633  0.37093782  0.17354743     0.01100
C1979       C  0.52297575  0.36596076  0.19226984     0.16100
C1980       C  0.54532153  0.36602887  0.19237239     0.25500
C1981       C  0.55690634  0.37138755  0.17374933    -0.40900
C1982       C  0.54541893  0.37534064  0.15467883     0.32500
C1983       C  0.48785688  0.37264610  0.17424181     0.01100
F1984       F  0.51241600  0.36122857  0.21062556    -0.13200
F1985       F  0.55585270  0.38042665  0.13636818    -0.13700
C1986       C  0.47485223  0.35862223  0.16242672     0.16100
C1987       C  0.45248077  0.35980804  0.16390702     0.25500
C1988       C  0.44266304  0.37510371  0.17728070    -0.40800
C1989       C  0.45585919  0.38930275  0.18889346     0.32400
C1990       C  0.47815291  0.38802844  0.18740428     0.14100
F1991       F  0.48385851  0.34328653  0.15000342    -0.13200
F1992       F  0.44724292  0.40464230  0.20160410    -0.13700
F1993       F  0.44050604  0.34548004  0.15279522    -0.16000
F1994       F  0.49034548  0.40195446  0.19881005    -0.14500
F1995       F  0.51220121  0.37994653  0.13629163    -0.14500
F1996       F  0.55561188  0.36097673  0.21089682    -0.15900
C1997       C  0.59296017  0.30327538  0.26385950     0.14100
C1998       C  0.60771304  0.28673466  0.26769118     0.01100
C1999       C  0.62788969  0.28758038  0.25805968     0.16100
C2000       C  0.63334088  0.30455275  0.24475557     0.25500
C2001       C  0.61861676  0.32123796  0.24055097    -0.40900
C2002       C  0.59830381  0.32037801  0.25032860     0.32500
C2003       C  0.60338821  0.26940609  0.28317786     0.01100
F2004       F  0.64274602  0.27222080  0.26218164    -0.13200
F2005       F  0.58357169  0.33596550  0.24681012    -0.13700
C2006       C  0.60499623  0.24792975  0.27677726     0.16100
C2007       C  0.60733105  0.23173961  0.29206269     0.25500
C2008       C  0.60816736  0.23683784  0.31402837    -0.40800
C2009       C  0.60407448  0.25811355  0.32035341     0.32400
C2010       C  0.60182122  0.27424793  0.30502273     0.14100
F2011       F  0.60582863  0.24284334  0.25566719    -0.13200
F2012       F  0.60420113  0.26376232  0.34133193    -0.13700
F2013       F  0.60991669  0.21126612  0.28529146    -0.16000
F2014       F  0.60026526  0.29488446  0.31158265    -0.14500
F2015       F  0.57339482  0.30281184  0.27318968    -0.14500
F2016       F  0.65334975  0.30466834  0.23636384    -0.15900
C2017       C  0.64928013  0.97792964  0.11962949     0.14100
C2018       C  0.66518236  0.98917661  0.13082839     0.01100
C2019       C  0.68122428  0.97787814  0.14175661     0.16100
C2020       C  0.68195979  0.95559408  0.14076510     0.25500
C2021       C  0.66662320  0.94417949  0.12871699    -0.40900
C2022       C  0.64994056  0.95555753  0.11859556     0.32500
C2023       C  0.66675512  0.01261222  0.12893825     0.01100
F2024       F  0.69660926  0.98854198  0.15283180    -0.13200
F2025       F  0.63502245  0.94517942  0.10666145    -0.13700
C2026       C  0.65374247  0.02622249  0.14111450     0.16100
C2027       C  0.65600999  0.04846882  0.13941099     0.25500
C2028       C  0.67143242  0.05727591  0.12557490    -0.40800
C2029       C  0.68430899  0.04347985  0.11336674     0.32400
C2030       C  0.68194591  0.02136869  0.11502584     0.14100
F2031       F  0.63924749  0.01794746  0.15495244    -0.13200
F2032       F  0.69896747  0.05141993  0.09950309    -0.13700
F2033       F  0.64371251  0.06133925  0.15181438    -0.16000
F2034       F  0.69449464  0.00839182  0.10298515    -0.14500
F2035       F  0.63379157  0.98869596  0.10877231    -0.14500
F2036       F  0.69791050  0.94522443  0.15136849    -0.15900
C2037       C  0.62349247  0.14421353  0.22644244     0.14100
C2038       C  0.62322653  0.12431624  0.23695450     0.01100
C2039       C  0.62809601  0.10572958  0.22518344     0.16100
C2040       C  0.63463443  0.10725507  0.20371980     0.25500
C2041       C  0.63652526  0.12738591  0.19388756    -0.40900
C2042       C  0.63016495  0.14571797  0.20518920     0.32500
C2043       C  0.62156084  0.12391966  0.26071219     0.01100
F2044       F  0.62772808  0.08628703  0.23485190    -0.13200
F2045       F  0.63187729  0.16535284  0.19604504    -0.13700
C2046       C  0.60410131  0.13359976  0.27111116     0.16100
C2047       C  0.60548460  0.13900725  0.29286960     0.25500
C2048       C  0.62434792  0.13486853  0.30445658    -0.40800
C2049       C  0.64096450  0.12345939  0.29460299     0.32400
C2050       C  0.63952894  0.11785984  0.27295622     0.14100
F2051       F  0.58644508  0.13939138  0.25976830    -0.13200
F2052       F  0.65936745  0.11937642  0.30550179    -0.13700
F2053       F  0.58936269  0.15031268  0.30198962    -0.16000
F2054       F  0.65669573  0.10861630  0.26343919    -0.14500
F2055       F  0.61925749  0.16250273  0.23735637    -0.14500
F2056       F  0.64091308  0.08934321  0.19320848    -0.15900
C2057       C  0.62055686  0.22361708  0.12966503     0.14100
C2058       C  0.63589983  0.23997272  0.12763486     0.01100
C2059       C  0.65737622  0.23443304  0.12404951     0.16100
C2060       C  0.66357471  0.21304046  0.12359916     0.25500
C2061       C  0.64852754  0.19670384  0.12713589    -0.40900
C2062       C  0.62683808  0.20207796  0.12941855     0.32500
C2063       C  0.63041402  0.26258438  0.13217212     0.01100
F2064       F  0.67271761  0.24974222  0.12276805    -0.13200
F2065       F  0.61205794  0.18665482  0.13317809    -0.13700
C2066       C  0.62221176  0.26806716  0.15235398     0.16100
C2067       C  0.62127352  0.28943352  0.15868056     0.25500
C2068       C  0.62859332  0.30569533  0.14502235    -0.40800
C2069       C  0.63539334  0.30044820  0.12430022     0.32400
C2070       C  0.63630998  0.27898990  0.11790514     0.14100
F2071       F  0.61694026  0.25266154  0.16672326    -0.13200
F2072       F  0.64299606  0.31584772  0.11103877    -0.13700
F2073       F  0.61448379  0.29419556  0.17875222    -0.16000
F2074       F  0.64423047  0.27411610  0.09830231    -0.14500
F2075       F  0.59968796  0.22855420  0.13301905    -0.14500
F2076       F  0.68461142  0.20829480  0.12088192    -0.15900
C2077       C  0.97700987  0.13559938  0.34192363     0.14100
C2078       C  0.98880189  0.12298281  0.32753574     0.01100
C2079       C  0.97789542  0.10987353  0.31291330     0.16100
C2080       C  0.95560343  0.11003767  0.31199160     0.25500
C2081       C  0.94369955  0.12318901  0.32583693    -0.40900
C2082       C  0.95456096  0.13564727  0.34113955     0.32500
C2083       C  0.01243691  0.12414836  0.32677753     0.01100
F2084       F  0.98891719  0.09698358  0.29936727    -0.13200
F2085       F  0.94352252  0.14864530  0.35454142    -0.13700
C2086       C  0.02500415  0.11756897  0.34427324     0.16100
C2087       C  0.04736697  0.11750866  0.34280324     0.25500
C2088       C  0.05748009  0.12390958  0.32372862    -0.40800
C2089       C  0.04479851  0.13089312  0.30640093     0.32400
C2090       C  0.02252211  0.13104724  0.30795161     0.14100
F2091       F  0.01559906  0.11043359  0.36247007    -0.13200
F2092       F  0.05395963  0.13782174  0.28798630    -0.13700
F2093       F  0.05906892  0.11033516  0.35970862    -0.16000
F2094       F  0.01070923  0.13794353  0.29100016    -0.14500
F2095       F  0.98725353  0.14852715  0.35607543    -0.14500
F2096       F  0.94560843  0.09722834  0.29753031    -0.15900
C2097       C  0.88320120  0.02303583  0.31441867     0.14100
C2098       C  0.86895806  0.01369704  0.32897446     0.01100
C2099       C  0.85758736  0.02694434  0.34311373     0.16100
C2100       C  0.86000045  0.04928563  0.34226601     0.25500
C2101       C  0.87388902  0.05872741  0.32724119    -0.40900
C2102       C  0.88570066  0.04521046  0.31356602     0.32500
C2103       C  0.86592272  0.99013944  0.32879819     0.01100
F2104       F  0.84361253  0.01827724  0.35723266    -0.13200
F2105       F  0.89985163  0.05340148  0.29931196    -0.13700
C2106       C  0.87274569  0.97746918  0.34610893     0.16100
C2107       C  0.87261024  0.95506135  0.34456894     0.25500
C2108       C  0.86570199  0.94491254  0.32558495    -0.40800
C2109       C  0.85763415  0.95778155  0.30878593     0.32400
C2110       C  0.85784477  0.98009307  0.31038051     0.14100
F2111       F  0.88069692  0.98681957  0.36405256    -0.13200
F2112       F  0.84987651  0.94883923  0.29053282    -0.13700
F2113       F  0.88037322  0.94342056  0.36122609    -0.16000
F2114       F  0.85063301  0.99199028  0.29363579    -0.14500
F2115       F  0.89480243  0.01057404  0.30095969    -0.14500
F2116       F  0.84813712  0.06164742  0.35556270    -0.15900
C2117       C  0.77952993  0.10595011  0.18644231     0.14100
C2118       C  0.77542452  0.10496490  0.20845602     0.01100
C2119       C  0.75423341  0.10427163  0.21569484     0.16100
C2120       C  0.73728357  0.10625064  0.20114307     0.25500
C2121       C  0.74137273  0.10884404  0.17912481    -0.40900
C2122       C  0.76265369  0.10770527  0.17183562     0.32500
C2123       C  0.79291227  0.10888355  0.22379069     0.01100
F2124       F  0.75003382  0.10351426  0.23698934    -0.13200
F2125       F  0.76733015  0.11042373  0.15080446    -0.13700
C2126       C  0.80124466  0.12962030  0.22542927     0.16100
C2127       C  0.81684897  0.13429196  0.24066133     0.25500
C2128       C  0.82453126  0.11823432  0.25449503    -0.40800
C2129       C  0.81659226  0.09726816  0.25249043     0.32400
C2130       C  0.80067580  0.09267014  0.23730077     0.14100
F2131       F  0.79377961  0.14553022  0.21258885    -0.13200
F2132       F  0.82356114  0.08152236  0.26577821    -0.13700
F2133       F  0.82447860  0.15459401  0.24186457    -0.16000
F2134       F  0.79267276  0.07255042  0.23590572    -0.14500
F2135       F  0.79997848  0.10688376  0.17924973    -0.14500
F2136       F  0.71695850  0.10684182  0.20871163    -0.15900
C2137       C  0.73380802  0.15378756  0.37684790     0.14100
C2138       C  0.73896739  0.13255940  0.37160721     0.01100
C2139       C  0.72227855  0.11791525  0.36773250     0.16100
C2140       C  0.70089569  0.12481351  0.36745771     0.25500
C2141       C  0.69596547  0.14646209  0.37098231    -0.40900
C2142       C  0.71255733  0.16066797  0.37650691     0.32500
C2143       C  0.76145181  0.12723995  0.36612456     0.01100
F2144       F  0.72681754  0.09726173  0.36282420    -0.13200
F2145       F  0.70830000  0.18162399  0.38036289    -0.13700
C2146       C  0.77834733  0.13106187  0.38062592     0.16100
C2147       C  0.79964259  0.13122221  0.37350973     0.25500
C2148       C  0.80424026  0.12766499  0.35176575    -0.40800
C2149       C  0.78743087  0.12196595  0.33781063     0.32400
C2150       C  0.76630873  0.12185456  0.34487680     0.14100
F2151       F  0.77410206  0.13587806  0.40136373    -0.13200
F2152       F  0.79131985  0.11766952  0.31687030    -0.13700
F2153       F  0.81546529  0.13658722  0.38744916    -0.16000
F2154       F  0.75043925  0.11840598  0.33037313    -0.14500
F2155       F  0.74948825  0.16841335  0.38032231    -0.14500
F2156       F  0.68529024  0.11080192  0.36182271    -0.15900
C2157       C  0.84783321  0.47731481  0.37514513     0.14100
C2158       C  0.82975348  0.49023774  0.37156565     0.01100
C2159       C  0.80980961  0.48041266  0.36828063     0.16100
C2160       C  0.80779473  0.45815124  0.36911591     0.25500
C2161       C  0.82573984  0.44506332  0.37326866    -0.40900
C2162       C  0.84587867  0.45492582  0.37596764     0.32500
C2163       C  0.83103361  0.51395401  0.37295306     0.01100
F2164       F  0.79213429  0.49249418  0.36443107    -0.13200
F2165       F  0.86353599  0.44300405  0.38031064    -0.13700
C2166       C  0.84237088  0.52615592  0.35781308     0.16100
C2167       C  0.84175369  0.54867635  0.35850439     0.25500
C2168       C  0.82969950  0.55922839  0.37431102    -0.40800
C2169       C  0.81913165  0.54685324  0.38987844     0.32400
C2170       C  0.81979038  0.52455641  0.38918435     0.14100
F2171       F  0.85322805  0.51627333  0.34185465    -0.13200
F2172       F  0.80801440  0.55640591  0.40588315    -0.13700
F2173       F  0.85196725  0.56007432  0.34314092    -0.16000
F2174       F  0.80917816  0.51321713  0.40433627    -0.14500
F2175       F  0.86721514  0.48642533  0.37875378    -0.14500
F2176       F  0.78818806  0.44942710  0.36571328    -0.15900
C2177       C  0.73182484  0.41442591  0.30326092     0.14100
C2178       C  0.72379792  0.39832407  0.28980531     0.01100
C2179       C  0.72937267  0.37697014  0.29360044     0.16100
C2180       C  0.74350553  0.37169561  0.30994533     0.25500
C2181       C  0.75268036  0.38775429  0.32289174    -0.40900
C2182       C  0.74627858  0.40919064  0.31975947     0.32500
C2183       C  0.70960008  0.40289226  0.27150384     0.01100
F2184       F  0.72114055  0.36109144  0.28122947    -0.13200
F2185       F  0.75450144  0.42508164  0.33207357    -0.13700
C2186       C  0.71682873  0.39811365  0.25082170     0.16100
C2187       C  0.70220775  0.39441798  0.23431976     0.25500
C2188       C  0.68005463  0.39543257  0.23830666    -0.40800
C2189       C  0.67302116  0.40292751  0.25840168     0.32400
C2190       C  0.68775492  0.40648777  0.27493479     0.14100
F2191       F  0.73799478  0.39487469  0.24719238    -0.13200
F2192       F  0.65184684  0.40480847  0.26278239    -0.13700
F2193       F  0.70975773  0.38837957  0.21488286    -0.16000
F2194       F  0.68051720  0.41117877  0.29484469    -0.14500
F2195       F  0.72615271  0.43513935  0.30002522    -0.14500
F2196       F  0.74821008  0.35068985  0.31297544    -0.15900
C2197       C  0.86895561  0.27469584  0.34890505     0.14100
C2198       C  0.87129206  0.26431682  0.36869479     0.01100
C2199       C  0.86857706  0.27612270  0.38765531     0.16100
C2200       C  0.86244430  0.29776672  0.38678322     0.25500
C2201       C  0.85854920  0.30766952  0.36691009    -0.40900
C2202       C  0.86259334  0.29610373  0.34800674     0.32500
C2203       C  0.87255789  0.24063336  0.36902888     0.01100
F2204       F  0.87060998  0.26632615  0.40694648    -0.13200
F2205       F  0.85919091  0.30524343  0.32854848    -0.13700
C2206       C  0.89153203  0.22979021  0.36365476     0.16100
C2207       C  0.89115741  0.20772740  0.35920884     0.25500
C2208       C  0.87170938  0.19643431  0.35971237    -0.40800
C2209       C  0.85308916  0.20711910  0.36644025     0.32400
C2210       C  0.85352810  0.22895890  0.37110764     0.14100
F2211       F  0.91005009  0.24084187  0.36131529    -0.13200
F2212       F  0.83404391  0.19668719  0.36684820    -0.13700
F2213       F  0.90927554  0.19793278  0.35238096    -0.16000
F2214       F  0.83491268  0.23915312  0.37572447    -0.14500
F2215       F  0.87112486  0.26356663  0.33037635    -0.14500
F2216       F  0.85849257  0.30841420  0.40527440    -0.15900
C2217       C  0.70168220  0.26986617  0.36413921     0.14100
C2218       C  0.70875511  0.27332152  0.38517504     0.01100
C2219       C  0.70001869  0.26113811  0.40188429     0.16100
C2220       C  0.68404783  0.24590546  0.39757569     0.25500
C2221       C  0.67685811  0.24249949  0.37643114    -0.40900
C2222       C  0.68599486  0.25460547  0.35976581     0.32500
C2223       C  0.72517608  0.28989697  0.38911510     0.01100
F2224       F  0.70694165  0.26401714  0.42229699    -0.13200
F2225       F  0.67951078  0.25194641  0.33916023    -0.13700
C2226       C  0.71950639  0.31159105  0.38784629     0.16100
C2227       C  0.73532087  0.32737803  0.38658842     0.25500
C2228       C  0.75712191  0.32164314  0.38622287    -0.40800
C2229       C  0.76274235  0.29997921  0.38902704     0.32400
C2230       C  0.74687054  0.28423977  0.39051774     0.14100
F2231       F  0.69859603  0.31733482  0.38634861    -0.13200
F2232       F  0.78361853  0.29394862  0.38934380    -0.13700
F2233       F  0.72922231  0.34803663  0.38373695    -0.16000
F2234       F  0.75268106  0.26335005  0.39179863    -0.14500
F2235       F  0.71013976  0.28129381  0.34773457    -0.14500
F2236       F  0.67609443  0.23408395  0.41393706    -0.15900
C2237       C  0.02177826  0.31306716  0.11007778     0.14100
C2238       C  0.01253161  0.32830502  0.12373739     0.01100
C2239       C  0.02606186  0.34220069  0.13518320     0.16100
C2240       C  0.04843572  0.34035303  0.13354929     0.25500
C2241       C  0.05775906  0.32449448  0.12042806    -0.40900
C2242       C  0.04400865  0.31114406  0.10843390     0.32500
C2243       C  0.98881975  0.32880225  0.12639263     0.01100
F2244       F  0.01764110  0.35704959  0.14857226    -0.13200
F2245       F  0.05198566  0.29611495  0.09496384    -0.13700
C2246       C  0.97805565  0.31022711  0.13297867     0.16100
C2247       C  0.95569416  0.30942005  0.13306874     0.25500
C2248       C  0.94339129  0.32730422  0.12678480    -0.40800
C2249       C  0.95417649  0.34633295  0.12130028     0.32400
C2250       C  0.97668666  0.34704152  0.12105425     0.14100
F2251       F  0.98929721  0.29264067  0.13910452    -0.13200
F2252       F  0.94299893  0.36391322  0.11508943    -0.13700
F2253       F  0.94608686  0.29096539  0.13925202    -0.16000
F2254       F  0.98660264  0.36522494  0.11460680    -0.14500
F2255       F  0.00916005  0.29990763  0.09822996    -0.14500
F2256       F  0.06089727  0.35364805  0.14539458    -0.15900
C2257       C  0.78255616  0.25003748  0.10322299     0.14100
C2258       C  0.78813705  0.22832847  0.10548612     0.01100
C2259       C  0.80984975  0.22286811  0.10796005     0.16100
C2260       C  0.82545370  0.23884730  0.10973413     0.25500
C2261       C  0.81957071  0.26059151  0.10949508    -0.40900
C2262       C  0.79807771  0.26601996  0.10545059     0.32500
C2263       C  0.77124905  0.21182500  0.10842986     0.01100
F2264       F  0.81576732  0.20212782  0.11056483    -0.13200
F2265       F  0.79195733  0.28684709  0.10452929    -0.13700
C2266       C  0.77088562  0.19288996  0.09625396     0.16100
C2267       C  0.75603022  0.17665617  0.10076738     0.25500
C2268       C  0.74124369  0.17906791  0.11759460    -0.40800
C2269       C  0.74130713  0.19843363  0.12924831     0.32400
C2270       C  0.75616107  0.21443791  0.12481113     0.14100
F2271       F  0.78503222  0.19004916  0.08007971    -0.13200
F2272       F  0.72711072  0.20199304  0.14525972    -0.13700
F2273       F  0.75657153  0.15839887  0.08904371    -0.16000
F2274       F  0.75633692  0.23223781  0.13726223    -0.14500
F2275       F  0.76184311  0.25579747  0.09994941    -0.14500
F2276       F  0.84600790  0.23300588  0.11377443    -0.15900
C2277       C  0.90638455  0.23164417  0.19346072     0.14100
C2278       C  0.89319206  0.22965080  0.21149497     0.01100
C2279       C  0.87521513  0.24290081  0.21343517     0.16100
C2280       C  0.87025388  0.25774715  0.19762237     0.25500
C2281       C  0.88302521  0.25957292  0.17909462    -0.40900
C2282       C  0.90140247  0.24653446  0.17737418     0.32500
C2283       C  0.89665271  0.21278317  0.22771505     0.01100
F2284       F  0.86180267  0.24085537  0.23036870    -0.13200
F2285       F  0.91439525  0.24790446  0.16007487    -0.13700
C2286       C  0.89785456  0.21828183  0.24948973     0.16100
C2287       C  0.89485122  0.20272801  0.26523056     0.25500
C2288       C  0.89094620  0.18134367  0.25942165    -0.40800
C2289       C  0.89185437  0.17554545  0.23765637     0.32400
C2290       C  0.89456407  0.19119788  0.22191554     0.14100
F2291       F  0.90036676  0.23901762  0.25543790    -0.13200
F2292       F  0.88798300  0.15510653  0.23143088    -0.13700
F2293       F  0.89466480  0.20877825  0.28610323    -0.16000
F2294       F  0.89301529  0.18553709  0.20098667    -0.14500
F2295       F  0.92397322  0.21907332  0.19138542    -0.14500
F2296       F  0.85257664  0.27004867  0.20051601    -0.15900
C2297       C  0.87395168  0.38397410  0.22162691     0.14100
C2298       C  0.87353096  0.36956766  0.23891913     0.01100
C2299       C  0.87512230  0.34755283  0.23490968     0.16100
C2300       C  0.87547204  0.33992922  0.21397237     0.25500
C2301       C  0.87408120  0.35417276  0.19652634    -0.40900
C2302       C  0.87443932  0.37632684  0.20050413     0.32500
C2303       C  0.86778684  0.37661525  0.26074986     0.01100
F2304       F  0.87441092  0.33326902  0.25128697    -0.13200
F2305       F  0.87352161  0.39049950  0.18406144    -0.13700
C2306       C  0.84686991  0.38383766  0.26456010     0.16100
C2307       C  0.83885586  0.38435974  0.28537986     0.25500
C2308       C  0.85166259  0.37773092  0.30275774    -0.40800
C2309       C  0.87326546  0.37259112  0.29915178     0.32400
C2310       C  0.88123010  0.37190877  0.27823430     0.14100
F2311       F  0.83349826  0.38830727  0.24795245    -0.13200
F2312       F  0.88604768  0.36617114  0.31556953    -0.13700
F2313       F  0.81810932  0.39005486  0.28841768    -0.16000
F2314       F  0.90154623  0.36502555  0.27488497    -0.14500
F2315       F  0.87268732  0.40534383  0.22520460    -0.14500
F2316       F  0.87598518  0.31844015  0.21078498    -0.15900
C2317       C  0.77328098  0.37172471  0.10876634     0.14100
C2318       C  0.76245107  0.37715524  0.12774047     0.01100
C2319       C  0.77406277  0.37790760  0.14706125     0.16100
C2320       C  0.79556912  0.37168485  0.14766994     0.25500
C2321       C  0.80595970  0.36477295  0.12898071    -0.40900
C2322       C  0.79492356  0.36562372  0.10937882     0.32500
C2323       C  0.73866138  0.37841647  0.12826644     0.01100
F2324       F  0.76406537  0.38269383  0.16571732    -0.13200
F2325       F  0.80447948  0.35864203  0.09121012    -0.13700
C2326       C  0.72660074  0.36009099  0.12327728     0.16100
C2327       C  0.70476209  0.35924304  0.12799500     0.25500
C2328       C  0.69448674  0.37670537  0.13766975    -0.40800
C2329       C  0.70610803  0.39558703  0.14131219     0.32400
C2330       C  0.72807891  0.39643488  0.13668198     0.14100
F2331       F  0.73639102  0.34221643  0.11578879    -0.13200
F2332       F  0.69665468  0.41244755  0.15117855    -0.13700
F2333       F  0.69400185  0.34063917  0.12486295    -0.16000
F2334       F  0.73929494  0.41434526  0.14164729    -0.14500
F2335       F  0.76249979  0.37101283  0.08987872    -0.14500
F2336       F  0.80586336  0.37084362  0.16685174    -0.15900
C2337       C  0.63549242  0.81227875  0.51865162     0.14100
C2338       C  0.62658030  0.83014907  0.50834839     0.01100
C2339       C  0.61929117  0.84740213  0.52079610     0.16100
C2340       C  0.62008978  0.84636317  0.54326058     0.25500
C2341       C  0.62812029  0.82796211  0.55362994    -0.40900
C2342       C  0.63634166  0.81119368  0.54094306     0.32500
C2343       C  0.62437632  0.83013321  0.48466571     0.01100
F2344       F  0.61047104  0.86481853  0.51121905    -0.13200
F2345       F  0.64501237  0.79344683  0.55006824    -0.13700
C2346       C  0.61279315  0.81376264  0.47451783     0.16100
C2347       C  0.61211522  0.81237784  0.45221110     0.25500
C2348       C  0.62289825  0.82750220  0.43940349    -0.40800
C2349       C  0.63399451  0.84429127  0.44963015     0.32400
C2350       C  0.63473978  0.84554656  0.47205315     0.14100
F2351       F  0.60209145  0.79899949  0.48629112    -0.13200
F2352       F  0.64477330  0.85908577  0.43800350    -0.13700
F2353       F  0.60069289  0.79622383  0.44321352    -0.16000
F2354       F  0.64626590  0.86136298  0.48146726    -0.14500
F2355       F  0.64320258  0.79563157  0.50703943    -0.14500
F2356       F  0.61203872  0.86290010  0.55476805    -0.15900
C2357       C  0.59429067  0.68323267  0.71058632     0.14100
C2358       C  0.59379076  0.70532918  0.71471694     0.01100
C2359       C  0.59493169  0.71248512  0.73599566     0.16100
C2360       C  0.59871120  0.69795822  0.75260374     0.25500
C2361       C  0.60160521  0.67605116  0.74820250    -0.40900
C2362       C  0.59823119  0.66868673  0.72716845     0.32500
C2363       C  0.59653438  0.72078710  0.69695946     0.01100
F2364       F  0.59439857  0.73371512  0.74052821    -0.13200
F2365       F  0.60071370  0.64768820  0.72225082    -0.13700
C2366       C  0.58264214  0.73833535  0.69413273     0.16100
C2367       C  0.58752429  0.75436770  0.67918449     0.25500
C2368       C  0.60642805  0.75304392  0.66717960    -0.40800
C2369       C  0.61977344  0.73514360  0.66943976     0.32400
C2370       C  0.61490220  0.71918134  0.68414946     0.14100
F2371       F  0.56482498  0.74027885  0.70632778    -0.13200
F2372       F  0.63806520  0.73353890  0.65788590    -0.13700
F2373       F  0.57462029  0.77176982  0.67744430    -0.16000
F2374       F  0.62897932  0.70283795  0.68691046    -0.14500
F2375       F  0.59265567  0.67590235  0.69019157    -0.14500
F2376       F  0.60071822  0.70550744  0.77286747    -0.15900
C2377       C  0.81478926  0.64040108  0.52151801     0.14100
C2378       C  0.83223353  0.63029324  0.51167433     0.01100
C2379       C  0.84878676  0.62200810  0.52455061     0.16100
C2380       C  0.84735188  0.62289973  0.54697973     0.25500
C2381       C  0.82928365  0.63208254  0.55687172    -0.40900
C2382       C  0.81328016  0.64126402  0.54379991     0.32500
C2383       C  0.83200138  0.62717642  0.48809936     0.01100
F2384       F  0.86575297  0.61202033  0.51543871    -0.13200
F2385       F  0.79585592  0.65078302  0.55256483    -0.13700
C2386       C  0.84748447  0.63663263  0.47487659     0.16100
C2387       C  0.84563077  0.63530359  0.45248744     0.25500
C2388       C  0.82818150  0.62452857  0.44298305    -0.40800
C2389       C  0.81329668  0.61427655  0.45640139     0.32400
C2390       C  0.81522586  0.61557683  0.47863988     0.14100
F2391       F  0.86387618  0.64790846  0.48361947    -0.13200
F2392       F  0.79679976  0.60286166  0.44802490    -0.13700
F2393       F  0.86038088  0.64534967  0.44017606    -0.16000
F2394       F  0.80049988  0.60560387  0.49105225    -0.14500
F2395       F  0.79886660  0.64905842  0.50943964    -0.14500
F2396       F  0.86298273  0.61359081  0.55893662    -0.15900
C2397       C  0.74098639  0.71537891  0.62666291     0.14100
C2398       C  0.72790212  0.71356260  0.60847359     0.01100
C2399       C  0.73055750  0.69598033  0.59475750     0.16100
C2400       C  0.74594047  0.68024854  0.59937060     0.25500
C2401       C  0.75886262  0.68182144  0.61790495    -0.40900
C2402       C  0.75627560  0.69982956  0.63132511     0.32500
C2403       C  0.71054442  0.72936078  0.60520456     0.01100
F2404       F  0.71816674  0.69400873  0.57697048    -0.13200
F2405       F  0.76797771  0.70222187  0.64953278    -0.13700
C2406       C  0.71533797  0.75130570  0.60449766     0.16100
C2407       C  0.69914594  0.76647947  0.60712569     0.25500
C2408       C  0.67785560  0.75992100  0.61018552    -0.40800
C2409       C  0.67280342  0.73805108  0.60872745     0.32400
C2410       C  0.68907135  0.72286318  0.60642600     0.14100
F2411       F  0.73590873  0.75797206  0.60255840    -0.13200
F2412       F  0.65239259  0.73121645  0.61149982    -0.13700
F2413       F  0.70439130  0.78755177  0.60754453    -0.16000
F2414       F  0.68401980  0.70177490  0.60733832    -0.14500
F2415       F  0.73828511  0.73183976  0.64058317    -0.14500
F2416       F  0.74803291  0.66348648  0.58574688    -0.15900
C2417       C  0.69171287  0.58875899  0.72563893     0.14100
C2418       C  0.70327640  0.60507326  0.71550537     0.01100
C2419       C  0.69885729  0.62646861  0.72038606     0.16100
C2420       C  0.68345877  0.63163582  0.73555905     0.25500
C2421       C  0.67211935  0.61542224  0.74637097    -0.40900
C2422       C  0.67609274  0.59388052  0.74091655     0.32500
C2423       C  0.72074719  0.60048545  0.70041012     0.01100
F2424       F  0.70981657  0.64245102  0.71060647    -0.13200
F2425       F  0.66534220  0.57780202  0.75072726    -0.13700
C2426       C  0.71712185  0.60246120  0.67830373     0.16100
C2427       C  0.73438339  0.60473254  0.66427943     0.25500
C2428       C  0.75540807  0.60547808  0.67232740    -0.40800
C2429       C  0.75904362  0.60181705  0.69425137     0.32400
C2430       C  0.74180309  0.59918607  0.70818729     0.14100
F2431       F  0.69685126  0.60423264  0.67060359    -0.13200
F2432       F  0.77923176  0.60233278  0.70235697    -0.13700
F2433       F  0.73043254  0.60869890  0.64325914    -0.16000
F2434       F  0.74557511  0.59743973  0.72953871    -0.14500
F2435       F  0.69574833  0.56796219  0.72092918    -0.14500
F2436       F  0.67957807  0.65264642  0.73948406    -0.15900
C2437       C  0.65002011  0.88072579  0.97501086     0.14100
C2438       C  0.66712099  0.87427299  0.98818315     0.01100
C2439       C  0.68594115  0.86658831  0.97877111     0.16100
C2440       C  0.68797556  0.86597809  0.95652390     0.25500
C2441       C  0.67120618  0.87319442  0.94314434    -0.40900
C2442       C  0.65200128  0.88014981  0.95264104     0.32500
C2443       C  0.66594490  0.87630177  0.01175491     0.01100
F2444       F  0.70245163  0.85974658  0.99122375    -0.13200
F2445       F  0.63548993  0.88722953  0.94034927    -0.13700
C2446       C  0.65305332  0.86250695  0.02385334     0.16100
C2447       C  0.65341623  0.86342507  0.04628846     0.25500
C2448       C  0.66672578  0.87820021  0.05696835    -0.40800
C2449       C  0.67919829  0.89236731  0.04465933     0.32400
C2450       C  0.67880945  0.89137727  0.02231117     0.14100
F2451       F  0.64074709  0.84760560  0.01393314    -0.13200
F2452       F  0.69175030  0.90730985  0.05422994    -0.13700
F2453       F  0.64147107  0.84923574  0.05752480    -0.16000
F2454       F  0.69114134  0.90509637  0.01089264    -0.14500
F2455       F  0.63171843  0.88831398  0.98383777    -0.14500
F2456       F  0.70639042  0.85817308  0.94808869    -0.15900
C2457       C  0.64051071  0.84326441  0.76911621     0.14100
C2458       C  0.63025412  0.86152320  0.76101080     0.01100
C2459       C  0.62701277  0.87916017  0.77459509     0.16100
C2460       C  0.63420491  0.87852791  0.79599978     0.25500
C2461       C  0.64497747  0.86031283  0.80393351    -0.40900
C2462       C  0.64763435  0.84257553  0.79023587     0.32500
C2463       C  0.62384946  0.86165563  0.73811094     0.01100
F2464       F  0.61700228  0.89694107  0.76710785    -0.13200
F2465       F  0.65726547  0.82435645  0.79721935    -0.13700
C2466       C  0.60952676  0.84603312  0.73060668     0.16100
C2467       C  0.60846077  0.84114205  0.70880570     0.25500
C2468       C  0.62156662  0.85191482  0.69409267    -0.40800
C2469       C  0.63411848  0.86916261  0.70126414     0.32400
C2470       C  0.63533699  0.87394033  0.72320250     0.14100
F2471       F  0.59807610  0.83412648  0.74466815    -0.13200
F2472       F  0.64708786  0.87968843  0.68743613    -0.13700
F2473       F  0.59588790  0.82468153  0.70224546    -0.16000
F2474       F  0.64945231  0.88895566  0.73006033    -0.14500
F2475       F  0.64421866  0.82614031  0.75627536    -0.14500
F2476       F  0.63128255  0.89591334  0.80865204    -0.15900
C2477       C  0.61110416  0.77765375  0.86964504     0.14100
C2478       C  0.62379757  0.75975286  0.87489433     0.01100
C2479       C  0.64385246  0.76300094  0.88458794     0.16100
C2480       C  0.65209152  0.78362170  0.88668146     0.25500
C2481       C  0.64049099  0.80136614  0.87904962    -0.40900
C2482       C  0.61939377  0.79839297  0.87176078     0.32500
C2483       C  0.61875958  0.73832502  0.86603486     0.01100
F2484       F  0.65658826  0.74611976  0.88967209    -0.13200
F2485       F  0.60777287  0.81523342  0.86438843    -0.13700
C2486       C  0.61777770  0.73588949  0.84370268     0.16100
C2487       C  0.61831998  0.71559591  0.83453594     0.25500
C2488       C  0.61986344  0.69719652  0.84744462    -0.40800
C2489       C  0.61929772  0.69947316  0.86983488     0.32400
C2490       C  0.61882839  0.71993942  0.87907206     0.14100
F2491       F  0.61824420  0.75323527  0.83061006    -0.13200
F2492       F  0.62098123  0.68206688  0.88272913    -0.13700
F2493       F  0.61846682  0.71401150  0.81286869    -0.16000
F2494       F  0.61968368  0.72186462  0.90069726    -0.14500
F2495       F  0.59148348  0.77493129  0.86064825    -0.14500
F2496       F  0.67230973  0.78610743  0.89433725    -0.15900
C2497       C  0.86626978  0.65571314  0.97434180     0.14100
C2498       C  0.86948336  0.67380793  0.98723586     0.01100
C2499       C  0.87558979  0.69314796  0.97768552     0.16100
C2500       C  0.87846137  0.69447815  0.95558905     0.25500
C2501       C  0.87523280  0.67640317  0.94242619    -0.40900
C2502       C  0.86900749  0.65698484  0.95211484     0.32500
C2503       C  0.86718488  0.67270630  0.01076430     0.01100
F2504       F  0.87907400  0.71078743  0.98988435    -0.13200
F2505       F  0.86570372  0.63915721  0.94017199    -0.13700
C2506       C  0.88144844  0.66031758  0.02302698     0.16100
C2507       C  0.88145815  0.66182316  0.04537871     0.25500
C2508       C  0.86730696  0.67588160  0.05573542    -0.40800
C2509       C  0.85233965  0.68747490  0.04348601     0.32400
C2510       C  0.85220461  0.68579800  0.02117683     0.14100
F2511       F  0.89628371  0.64783318  0.01329099    -0.13200
F2512       F  0.83809373  0.70071466  0.05312735    -0.13700
F2513       F  0.89634564  0.65076138  0.05677839    -0.16000
F2514       F  0.83786327  0.69743696  0.00964680    -0.14500
F2515       F  0.86021500  0.63688232  0.98327276    -0.14500
F2516       F  0.88401871  0.71369116  0.94714143    -0.15900
C2517       C  0.84757538  0.63870796  0.77185212     0.14100
C2518       C  0.86710189  0.63182209  0.76318159     0.01100
C2519       C  0.88558687  0.63208173  0.77609508     0.16100
C2520       C  0.88456810  0.63966801  0.79725116     0.25500
C2521       C  0.86509355  0.64740863  0.80553770    -0.40900
C2522       C  0.84656192  0.64632203  0.79275344     0.32500
C2523       C  0.86774536  0.62603438  0.74018861     0.01100
F2524       F  0.90460816  0.62539823  0.76809131    -0.13200
F2525       F  0.82737865  0.65302370  0.80039207    -0.13700
C2526       C  0.87812750  0.63952933  0.72550483     0.16100
C2527       C  0.87296987  0.63853302  0.70365191     0.25500
C2528       C  0.85726928  0.62416699  0.69637282    -0.40800
C2529       C  0.84864028  0.60922707  0.71073423     0.32400
C2530       C  0.85402123  0.60999973  0.73244348     0.14100
F2531       F  0.89130927  0.65527470  0.73258937    -0.13200
F2532       F  0.83349048  0.59516631  0.70403249    -0.13700
F2533       F  0.88123440  0.65336840  0.69013852    -0.16000
F2534       F  0.84415125  0.59650596  0.74627277    -0.14500
F2535       F  0.82953577  0.63904431  0.75965521    -0.14500
F2536       F  0.90275680  0.64047332  0.80918170    -0.15900
C2537       C  0.77454164  0.62854626  0.86518231     0.14100
C2538       C  0.75769389  0.64276001  0.86990103     0.01100
C2539       C  0.76268717  0.66268443  0.87908526     0.16100
C2540       C  0.78404645  0.66910291  0.88136256     0.25500
C2541       C  0.80085500  0.65577670  0.87443700    -0.40900
C2542       C  0.79592958  0.63499022  0.86739351     0.32500
C2543       C  0.73556472  0.63836347  0.86197131     0.01100
F2544       F  0.74692784  0.67673786  0.88413418    -0.13200
F2545       F  0.81167020  0.62160768  0.86074032    -0.13700
C2546       C  0.71757966  0.63964456  0.87544580     0.16100
C2547       C  0.69674916  0.63784667  0.86695093     0.25500
C2548       C  0.69354442  0.63481571  0.84480587    -0.40800
C2549       C  0.71165017  0.63275252  0.83157870     0.32400
C2550       C  0.73229563  0.63463429  0.84001057     0.14100
F2551       F  0.72015950  0.64315156  0.89674096    -0.13200
F2552       F  0.70941020  0.62950947  0.81019076    -0.13700
F2553       F  0.67976555  0.64036688  0.88018009    -0.16000
F2554       F  0.74915027  0.63406107  0.82637197    -0.14500
F2555       F  0.77024242  0.60887793  0.85705746    -0.14500
F2556       F  0.78826798  0.68891175  0.88921538    -0.15900
C2557       C  0.79867062  0.75824647  0.91279003     0.14100
C2558       C  0.79836370  0.77883231  0.90370385     0.01100
C2559       C  0.81572350  0.78557324  0.89111737     0.16100
C2560       C  0.83214276  0.77129075  0.88614704     0.25500
C2561       C  0.83145470  0.75026337  0.89384441    -0.40900
C2562       C  0.81515384  0.74400674  0.90783060     0.32500
C2563       C  0.77851843  0.79169317  0.90383189     0.01100
F2564       F  0.81576048  0.80527709  0.88196574    -0.13200
F2565       F  0.81431565  0.72360575  0.91524223    -0.13700
C2566       C  0.77868080  0.81313699  0.91044705     0.16100
C2567       C  0.76110129  0.82639073  0.90619865     0.25500
C2568       C  0.74304972  0.81833024  0.89521726    -0.40800
C2569       C  0.74231940  0.79630486  0.89035287     0.32400
C2570       C  0.75994513  0.78323194  0.89440479     0.14100
F2571       F  0.79631648  0.82149720  0.92003522    -0.13200
F2572       F  0.72500887  0.78750990  0.88054035    -0.13700
F2573       F  0.76244075  0.84737750  0.91156987    -0.16000
F2574       F  0.75947199  0.76264952  0.88746916    -0.14500
F2575       F  0.78223424  0.75148748  0.92520332    -0.14500
F2576       F  0.84790796  0.77747391  0.87259569    -0.15900
C2577       C  0.86021221  0.73205019  0.65569966     0.14100
C2578       C  0.86897688  0.74081455  0.63701612     0.01100
C2579       C  0.87059898  0.72802371  0.61860908     0.16100
C2580       C  0.86340383  0.70673664  0.61890321     0.25500
C2581       C  0.85429708  0.69803331  0.63761194    -0.40900
C2582       C  0.85306067  0.71097639  0.65606495     0.32500
C2583       C  0.87500369  0.76371901  0.63699718     0.01100
F2584       F  0.87895820  0.73621513  0.60034667    -0.13200
F2585       F  0.84471520  0.70337612  0.67460955    -0.13700
C2586       C  0.88974027  0.77129351  0.65226272     0.16100
C2587       C  0.89062498  0.79306908  0.65715529     0.25500
C2588       C  0.87709854  0.80760428  0.64655696    -0.40800
C2589       C  0.86422874  0.80039932  0.62955366     0.32400
C2590       C  0.86304635  0.77851198  0.62489498     0.14100
F2591       F  0.90185025  0.75734279  0.66377744    -0.13200
F2592       F  0.85092739  0.81417297  0.61921969    -0.13700
F2593       F  0.90343757  0.79977537  0.67341986    -0.16000
F2594       F  0.84851592  0.77160327  0.61024992    -0.14500
F2595       F  0.85782437  0.74423861  0.67352908    -0.14500
F2596       F  0.86463329  0.69497415  0.60069982    -0.15900
C2597       C  0.88398471  0.81756123  0.78197835     0.14100
C2598       C  0.89578575  0.79910819  0.77673877     0.01100
C2599       C  0.90521985  0.79767028  0.75636587     0.16100
C2600       C  0.90185531  0.81377607  0.74111887     0.25500
C2601       C  0.88930683  0.83168992  0.74610169    -0.40900
C2602       C  0.88075040  0.83370139  0.76674392     0.32500
C2603       C  0.89583423  0.78040283  0.79144896     0.01100
F2604       F  0.91688826  0.78018725  0.75093316    -0.13200
F2605       F  0.86807503  0.85063737  0.77167015    -0.13700
C2606       C  0.88712906  0.76087599  0.78454252     0.16100
C2607       C  0.88432293  0.74398904  0.79889819     0.25500
C2608       C  0.88974344  0.74633342  0.82073317    -0.40800
C2609       C  0.89981318  0.76545184  0.82731742     0.32400
C2610       C  0.90276100  0.78231483  0.81280177     0.14100
F2611       F  0.88003118  0.75854967  0.76410223    -0.13200
F2612       F  0.90590010  0.76833385  0.84799982    -0.13700
F2613       F  0.87547880  0.72560456  0.79143643    -0.16000
F2614       F  0.91182838  0.80077892  0.81975573    -0.14500
F2615       F  0.87420069  0.81920370  0.80127477    -0.14500
F2616       F  0.90973632  0.81128118  0.72106368    -0.15900
C2617       C  0.77512934  0.85172896  0.62547809     0.14100
C2618       C  0.76159349  0.86871911  0.63117869     0.01100
C2619       C  0.77043734  0.88713470  0.64058902     0.16100
C2620       C  0.79233011  0.88802016  0.64541547     0.25500
C2621       C  0.80554390  0.87037128  0.64115036    -0.40900
C2622       C  0.79692940  0.85247766  0.63061128     0.32500
C2623       C  0.73816623  0.86538812  0.63137584     0.01100
F2624       F  0.75755040  0.90354481  0.64657591    -0.13200
F2625       F  0.80937573  0.83513059  0.62664671    -0.13700
C2626       C  0.72818030  0.86132851  0.65099909     0.16100
C2627       C  0.70655836  0.85596451  0.65172348     0.25500
C2628       C  0.69432680  0.85448094  0.63274849    -0.40800
C2629       C  0.70419085  0.85925890  0.61307055     0.32400
C2630       C  0.72604231  0.86452496  0.61239784     0.14100
F2631       F  0.73972235  0.86150075  0.66947494    -0.13200
F2632       F  0.69307724  0.85756941  0.59443578    -0.13700
F2633       F  0.69774746  0.85160557  0.67107910    -0.16000
F2634       F  0.73551037  0.86819255  0.59323723    -0.14500
F2635       F  0.76688106  0.83361996  0.61677083    -0.14500
F2636       F  0.80017547  0.90516564  0.65620287    -0.15900
C2637       C  0.80987776  0.89543539  0.77693397     0.14100
C2638       C  0.78820496  0.89180813  0.77212581     0.01100
C2639       C  0.78184378  0.88986902  0.75060408     0.16100
C2640       C  0.79710555  0.88922852  0.73436790     0.25500
C2641       C  0.81903715  0.89077499  0.73935433    -0.40900
C2642       C  0.82517238  0.89516860  0.76063892     0.32500
C2643       C  0.77271843  0.88706787  0.78938123     0.01100
F2644       F  0.76087338  0.88728058  0.74545071    -0.13200
F2645       F  0.84613014  0.89722797  0.76604572    -0.13700
C2646       C  0.76885287  0.90154519  0.80612224     0.16100
C2647       C  0.75410031  0.89654855  0.82223380     0.25500
C2648       C  0.74288082  0.87697122  0.82179376    -0.40800
C2649       C  0.74729463  0.86235868  0.80514081     0.32400
C2650       C  0.76205628  0.86733455  0.78928315     0.14100
F2651       F  0.77913567  0.92064241  0.80670975    -0.13200
F2652       F  0.73770240  0.84289493  0.80426821    -0.13700
F2653       F  0.75072223  0.91097481  0.83808834    -0.16000
F2654       F  0.76632837  0.85252110  0.77397925    -0.14500
F2655       F  0.81650379  0.89733820  0.79756620    -0.14500
F2656       F  0.79047400  0.88601183  0.71388840    -0.15900
C2657       C  0.15661318  0.64070422  0.47050883     0.14100
C2658       C  0.16429156  0.62410558  0.48362744     0.01100
C2659       C  0.17350175  0.60599356  0.47410492     0.16100
C2660       C  0.17562340  0.60473357  0.45182800     0.25500
C2661       C  0.16823473  0.62145977  0.43859299    -0.40900
C2662       C  0.15836930  0.63931452  0.44815267     0.32500
C2663       C  0.16461126  0.62632633  0.50726076     0.01100
F2664       F  0.18100711  0.58976446  0.48649468    -0.13200
F2665       F  0.15133499  0.65586487  0.43591899    -0.13700
C2666       C  0.14938146  0.61597301  0.52007820     0.16100
C2667       C  0.15129248  0.61628860  0.54250101     0.25500
C2668       C  0.16873315  0.62667348  0.55243562    -0.40800
C2669       C  0.18348244  0.63768074  0.53943527     0.32400
C2670       C  0.18136263  0.63755499  0.51712335     0.14100
F2671       F  0.13297749  0.60511311  0.51083660    -0.13200
F2672       F  0.20013428  0.64847823  0.54830875    -0.13700
F2673       F  0.13668457  0.60554356  0.55438394    -0.16000
F2674       F  0.19614341  0.64782104  0.50502801    -0.14500
F2675       F  0.14784304  0.65844909  0.47940068    -0.14500
F2676       F  0.18485056  0.58708652  0.44318514    -0.15900
C2677       C  0.47984616  0.80803004  0.62710471     0.14100
C2678       C  0.48850144  0.82810679  0.62235287     0.01100
C2679       C  0.47480158  0.84547511  0.61857858     0.16100
C2680       C  0.45255718  0.84267944  0.61896012     0.25500
C2681       C  0.44367138  0.82233510  0.62308337    -0.40900
C2682       C  0.45770749  0.80514536  0.62763869     0.32500
C2683       C  0.51188843  0.83050758  0.62054030     0.01100
F2684       F  0.48301676  0.86502740  0.61400384    -0.13200
F2685       F  0.45012795  0.78541604  0.63260150    -0.13700
C2686       C  0.52213848  0.82459294  0.60151556     0.16100
C2687       C  0.54445237  0.82468012  0.60032919     0.25500
C2688       C  0.55685246  0.83076973  0.61815750    -0.40800
C2689       C  0.54653139  0.83737708  0.63699573     0.32400
C2690       C  0.52415219  0.83712275  0.63820047     0.14100
F2691       F  0.51050058  0.81807203  0.58432029    -0.13200
F2692       F  0.55810977  0.84263775  0.65465627    -0.13700
F2693       F  0.55400178  0.81842040  0.58187486    -0.16000
F2694       F  0.51445376  0.84235292  0.65687955    -0.14500
F2695       F  0.49292757  0.79109045  0.63097895    -0.14500
F2696       F  0.43983605  0.85978207  0.61471124    -0.15900
C2697       C  0.35579702  0.81553990  0.47720691     0.14100
C2698       C  0.36881706  0.83053656  0.48766177     0.01100
C2699       C  0.38105339  0.84486187  0.47544265     0.16100
C2700       C  0.38079018  0.84372012  0.45299268     0.25500
C2701       C  0.36862601  0.82789906  0.44254911    -0.40900
C2702       C  0.35577377  0.81415208  0.45487016     0.32500
C2703       C  0.37108396  0.82969358  0.51123811     0.01100
F2704       F  0.39385656  0.85937754  0.48531329    -0.13200
F2705       F  0.34358275  0.79895389  0.44523799    -0.13700
C2706       C  0.38856915  0.81890476  0.52037472     0.16100
C2707       C  0.39005814  0.81634512  0.54257040     0.25500
C2708       C  0.37411403  0.82468756  0.55610964    -0.40800
C2709       C  0.35684534  0.83597092  0.54692988     0.32400
C2710       C  0.35525057  0.83825539  0.52462806     0.14100
F2711       F  0.40391902  0.81029571  0.50769062    -0.13200
F2712       F  0.34105032  0.84395894  0.55945619    -0.13700
F2713       F  0.40718113  0.80573558  0.55083217    -0.16000
F2714       F  0.33806404  0.84846418  0.51604436    -0.14500
F2715       F  0.34391730  0.80150860  0.48871750    -0.14500
F2716       F  0.39351627  0.85706167  0.44158094    -0.15900
C2717       C  0.28573608  0.74161693  0.61876385     0.14100
C2718       C  0.28796452  0.72614836  0.60265858     0.01100
C2719       C  0.30694463  0.72557819  0.59061799     0.16100
C2720       C  0.32383185  0.73959765  0.59537606     0.25500
C2721       C  0.32192611  0.75436979  0.61227891    -0.40900
C2722       C  0.30235960  0.75567503  0.62336023     0.32500
C2723       C  0.27134004  0.70939547  0.60043209     0.01100
F2724       F  0.30930486  0.71108605  0.57462992    -0.13200
F2725       F  0.29933014  0.77036094  0.63907607    -0.13700
C2726       C  0.24963873  0.71506516  0.59828364     0.16100
C2727       C  0.23361752  0.69982877  0.60157521     0.25500
C2728       C  0.23906173  0.67856603  0.60655483    -0.40800
C2729       C  0.26076129  0.67253354  0.60680354     0.32400
C2730       C  0.27675564  0.68785861  0.60399417     0.14100
F2731       F  0.24397459  0.73563346  0.59413507    -0.13200
F2732       F  0.26659116  0.65218339  0.61173178    -0.13700
F2733       F  0.21279811  0.70600435  0.60060383    -0.16000
F2734       F  0.29750702  0.68195694  0.60669100    -0.14500
F2735       F  0.26784791  0.74236287  0.63100956    -0.14500
F2736       F  0.34228634  0.73803561  0.58410809    -0.15900
C2737       C  0.47377790  0.60182039  0.81669448     0.14100
C2738       C  0.48426639  0.61957520  0.82563139     0.01100
C2739       C  0.47196290  0.63609922  0.83465559     0.16100
C2740       C  0.44950427  0.63525978  0.83393813     0.25500
C2741       C  0.43903773  0.61797318  0.82396274    -0.40900
C2742       C  0.45145636  0.60104360  0.81579921     0.32500
C2743       C  0.50789216  0.62143111  0.82378236     0.01100
F2744       F  0.48169066  0.65356040  0.84313646    -0.13200
F2745       F  0.44196522  0.58368432  0.80681101    -0.13700
C2746       C  0.51725868  0.62137186  0.80343090     0.16100
C2747       C  0.53944113  0.62211831  0.80115178     0.25500
C2748       C  0.55306979  0.62294042  0.81929307    -0.40800
C2749       C  0.54355165  0.62343649  0.83976700     0.32400
C2750       C  0.52117944  0.62271993  0.84194479     0.14100
F2751       F  0.50480731  0.62063229  0.78557019    -0.13200
F2752       F  0.55579812  0.62426072  0.85773822    -0.13700
F2753       F  0.54741181  0.62188539  0.78096347    -0.16000
F2754       F  0.51250925  0.62265407  0.86182517    -0.14500
F2755       F  0.48524030  0.58533264  0.80843087    -0.14500
F2756       F  0.43806405  0.65189125  0.84190076    -0.15900
C2757       C  0.25508448  0.61464342  0.70835998     0.14100
C2758       C  0.26972929  0.59809632  0.70439438     0.01100
C2759       C  0.26876300  0.58719488  0.68472671     0.16100
C2760       C  0.25381989  0.59328170  0.66899043     0.25500
C2761       C  0.23970472  0.61049121  0.67268119    -0.40900
C2762       C  0.24018771  0.62065017  0.69284980     0.32500
C2763       C  0.28700658  0.59399685  0.72023522     0.01100
F2764       F  0.28249976  0.57088154  0.68066519    -0.13200
F2765       F  0.22637418  0.63671821  0.69765055    -0.13700
C2766       C  0.28191778  0.59027663  0.74182478     0.16100
C2767       C  0.29753706  0.59258910  0.75773696     0.25500
C2768       C  0.31854737  0.59838371  0.75229511    -0.40800
C2769       C  0.32416318  0.59965795  0.73054914     0.32400
C2770       C  0.30846046  0.59764673  0.71463367     0.14100
F2771       F  0.26145879  0.58592725  0.74760527    -0.13200
F2772       F  0.34433828  0.60513916  0.72475420    -0.13700
F2773       F  0.29188291  0.59026233  0.77854823    -0.16000
F2774       F  0.31384811  0.60145283  0.69395258    -0.14500
F2775       F  0.25584486  0.62580670  0.72699580    -0.14500
F2776       F  0.25370284  0.58281776  0.64996508    -0.15900
C2777       C  0.40790930  0.68866454  0.73148920     0.14100
C2778       C  0.39268330  0.69505602  0.71616570     0.01100
C2779       C  0.37240065  0.68546288  0.71594757     0.16100
C2780       C  0.36717434  0.67007518  0.73116338     0.25500
C2781       C  0.38218595  0.66393985  0.74683834    -0.40900
C2782       C  0.40276144  0.67299645  0.74665083     0.32500
C2783       C  0.39685250  0.71298973  0.70146102     0.01100
F2784       F  0.35727313  0.69179089  0.70159827    -0.13200
F2785       F  0.41739489  0.66758511  0.76184022    -0.13700
C2786       C  0.39638846  0.70968870  0.67925411     0.16100
C2787       C  0.39512026  0.72710202  0.66526084     0.25500
C2788       C  0.39399120  0.74808990  0.67338619    -0.40800
C2789       C  0.39649208  0.75132165  0.69560355     0.32400
C2790       C  0.39780614  0.73388534  0.70951673     0.14100
F2791       F  0.39563983  0.68952744  0.67123184    -0.13200
F2792       F  0.39630761  0.77133617  0.70402804    -0.13700
F2793       F  0.39303040  0.72324997  0.64397244    -0.16000
F2794       F  0.39807444  0.73739909  0.73096724    -0.14500
F2795       F  0.42749754  0.69799254  0.73206007    -0.14500
F2796       F  0.34726329  0.66138117  0.73079265    -0.15900
C2797       C  0.02086842  0.86231510  0.68313456     0.14100
C2798       C  0.01102432  0.87379667  0.66646777     0.01100
C2799       C  0.02382766  0.88287746  0.65039391     0.16100
C2800       C  0.04622891  0.88168238  0.65180964     0.25500
C2801       C  0.05608661  0.87151861  0.66943600    -0.40900
C2802       C  0.04310692  0.86121377  0.68464989     0.32500
C2803       C  0.98757351  0.87742344  0.66708131     0.01100
F2804       F  0.01470053  0.89394674  0.63402761    -0.13200
F2805       F  0.05194871  0.85039877  0.70135412    -0.13700
C2806       C  0.97851458  0.88748456  0.68496557     0.16100
C2807       C  0.95635012  0.88932109  0.68695762     0.25500
C2808       C  0.94254596  0.88123456  0.67093497    -0.40800
C2809       C  0.95179283  0.87186074  0.65255728     0.32400
C2810       C  0.97408193  0.87000529  0.65068763     0.14100
F2811       F  0.99125339  0.89545102  0.70071800    -0.13200
F2812       F  0.93935515  0.86394330  0.63656487    -0.13700
F2813       F  0.94854769  0.89886932  0.70481216    -0.16000
F2814       F  0.98245054  0.86024180  0.63321685    -0.14500
F2815       F  0.00884955  0.85261686  0.69836790    -0.14500
F2816       F  0.05819105  0.89163081  0.63670298    -0.15900
C2817       C  0.12488995  0.72491980  0.64552476     0.14100
C2818       C  0.12961612  0.73797270  0.62787949     0.01100
C2819       C  0.13704163  0.72853946  0.60887702     0.16100
C2820       C  0.14118812  0.70650616  0.60808785     0.25500
C2821       C  0.13825639  0.69384822  0.62641393    -0.40900
C2822       C  0.12927829  0.70302609  0.64482110     0.32500
C2823       C  0.13051932  0.76141272  0.63086229     0.01100
F2824       F  0.14176598  0.74092284  0.59168759    -0.13200
F2825       F  0.12649220  0.69104584  0.66273980    -0.13700
C2826       C  0.15050901  0.77118513  0.63383291     0.16100
C2827       C  0.15180762  0.79254772  0.64020112     0.25500
C2828       C  0.13310091  0.80465440  0.64355357    -0.40800
C2829       C  0.11307181  0.79516446  0.63947161     0.32400
C2830       C  0.11180287  0.77358121  0.63341769     0.14100
F2831       F  0.16879446  0.75959908  0.63187447    -0.13200
F2832       F  0.09473141  0.80628819  0.64282487    -0.13700
F2833       F  0.17141455  0.80122372  0.64376581    -0.16000
F2834       F  0.09233882  0.76429370  0.63091033    -0.14500
F2835       F  0.11804626  0.73371840  0.66414642    -0.14500
F2836       F  0.15014342  0.69798677  0.59025820    -0.15900
C2837       C  0.22352632  0.86070318  0.62448620     0.14100
C2838       C  0.23964610  0.87030095  0.63689866     0.01100
C2839       C  0.23394287  0.88364412  0.65400289     0.16100
C2840       C  0.21247250  0.88574391  0.65986085     0.25500
C2841       C  0.19644486  0.87461671  0.64858410    -0.40900
C2842       C  0.20200393  0.86298670  0.63017884     0.32500
C2843       C  0.26167749  0.86191404  0.63576197     0.01100
F2844       F  0.24932053  0.89285962  0.66632310    -0.13200
F2845       F  0.18693467  0.85171850  0.61928578    -0.13700
C2846       C  0.27767967  0.87180918  0.62359322     0.16100
C2847       C  0.29851788  0.86329292  0.62328954     0.25500
C2848       C  0.30355935  0.84475815  0.63524857    -0.40800
C2849       C  0.28711678  0.83498043  0.64731429     0.32400
C2850       C  0.26656376  0.84350839  0.64752905     0.14100
F2851       F  0.27312691  0.88968048  0.61210678    -0.13200
F2852       F  0.29079310  0.81726250  0.65938298    -0.13700
F2853       F  0.31362741  0.87313892  0.61127336    -0.16000
F2854       F  0.25129385  0.83384345  0.65954692    -0.14500
F2855       F  0.22881008  0.84730887  0.60824894    -0.14500
F2856       F  0.20746765  0.89730135  0.67754792    -0.15900
C2857       C  0.11155647  0.65586139  0.97463705     0.14100
C2858       C  0.12523175  0.66937505  0.98634145     0.01100
C2859       C  0.13891032  0.68330602  0.97532790     0.16100
C2860       C  0.13852931  0.68420164  0.95297171     0.25500
C2861       C  0.12453667  0.67107839  0.94117530    -0.40900
C2862       C  0.11125740  0.65664114  0.95216306     0.32500
C2863       C  0.12385783  0.67066928  0.00996785     0.01100
F2864       F  0.15220946  0.69652269  0.98632388    -0.13200
F2865       F  0.09699485  0.64440352  0.94123773    -0.13700
C2866       C  0.13316250  0.65500538  0.02317296     0.16100
C2867       C  0.13261200  0.65713429  0.04556166     0.25500
C2868       C  0.12265660  0.67502231  0.05510195    -0.40800
C2869       C  0.11307206  0.69048131  0.04157947     0.32400
C2870       C  0.11376792  0.68831816  0.01934953     0.14100
F2871       F  0.14320566  0.63791518  0.01434813    -0.13200
F2872       F  0.10273156  0.70772699  0.04976702    -0.13700
F2873       F  0.14223194  0.64193575  0.05779583    -0.16000
F2874       F  0.10449568  0.70354870  0.00686767    -0.14500
F2875       F  0.09771597  0.64278646  0.98501378    -0.14500
F2876       F  0.15159324  0.69821296  0.94279087    -0.15900
C2877       C  0.02324104  0.65113745  0.85826269     0.14100
C2878       C  0.00998382  0.66300719  0.87188535     0.01100
C2879       C  0.01914669  0.67606775  0.88767799     0.16100
C2880       C  0.04125294  0.67830109  0.88908434     0.25500
C2881       C  0.05469799  0.66738426  0.87474345    -0.40900
C2882       C  0.04553246  0.65324183  0.85971131     0.32500
C2883       C  0.98672132  0.66428981  0.86828541     0.01100
F2884       F  0.00652339  0.68734999  0.90125820    -0.13200
F2885       F  0.05801413  0.64245191  0.84563277    -0.13700
C2886       C  0.97302449  0.64750875  0.87402949     0.16100
C2887       C  0.95080699  0.65076067  0.87432627     0.25500
C2888       C  0.94213503  0.67093422  0.86888640    -0.40800
C2889       C  0.95607323  0.68703279  0.86142986     0.32400
C2890       C  0.97806613  0.68372936  0.86125540     0.14100
F2891       F  0.98121153  0.62843403  0.88047903    -0.13200
F2892       F  0.94860144  0.70638422  0.85488648    -0.13700
F2893       F  0.93800540  0.63456329  0.88095022    -0.16000
F2894       F  0.99111503  0.69995220  0.85511399    -0.14500
F2895       F  0.01458443  0.63848062  0.84286085    -0.14500
F2896       F  0.04947000  0.69144298  0.90433625    -0.15900
C2897       C  0.11723952  0.65168128  0.76272220     0.14100
C2898       C  0.12460738  0.63091638  0.75823322     0.01100
C2899       C  0.12917077  0.61707229  0.77551132     0.16100
C2900       C  0.12839422  0.62456597  0.79672638     0.25500
C2901       C  0.12306535  0.64602780  0.80093751    -0.40900
C2902       C  0.11638767  0.65908056  0.78378753     0.32500
C2903       C  0.13086084  0.62542377  0.73586505     0.01100
F2904       F  0.13554072  0.59665581  0.77176269    -0.13200
F2905       F  0.11015143  0.67957048  0.78732376    -0.13700
C2906       C  0.15230922  0.62029634  0.73147651     0.16100
C2907       C  0.15981568  0.62015441  0.71043528     0.25500
C2908       C  0.14612887  0.62534130  0.69319069    -0.40800
C2909       C  0.12426197  0.62866779  0.69736956     0.32400
C2910       C  0.11669622  0.62867530  0.71852840     0.14100
F2911       F  0.16653736  0.61719816  0.74767545    -0.13200
F2912       F  0.11052540  0.63356665  0.68120270    -0.13700
F2913       F  0.18085414  0.61593796  0.70704405    -0.16000
F2914       F  0.09573630  0.63299741  0.72216533    -0.14500
F2915       F  0.11270017  0.66557351  0.74661244    -0.14500
F2916       F  0.13455040  0.61137937  0.81289186    -0.15900
C2917       C  0.21914447  0.61793767  0.87347576     0.14100
C2918       C  0.23655229  0.63207487  0.87162199     0.01100
C2919       C  0.23261521  0.65410946  0.87022811     0.16100
C2920       C  0.21173208  0.66185926  0.86933114     0.25500
C2921       C  0.19417439  0.64777693  0.87008119    -0.40900
C2922       C  0.19804443  0.62577032  0.87300264     0.32500
C2923       C  0.25847750  0.62433140  0.86709803     0.01100
F2924       F  0.24907499  0.66808446  0.86798440    -0.13200
F2925       F  0.18150885  0.61174869  0.87388496    -0.13700
C2926       C  0.26261807  0.61545352  0.84692027     0.16100
C2927       C  0.28353504  0.61438952  0.83926299     0.25500
C2928       C  0.30075543  0.62181444  0.85175781    -0.40800
C2929       C  0.29689039  0.62872561  0.87277861     0.32400
C2930       C  0.27580209  0.63016757  0.88034867     0.14100
F2931       F  0.24621915  0.60998210  0.83368676    -0.13200
F2932       F  0.31322062  0.63605783  0.88512552    -0.13700
F2933       F  0.28685555  0.60754173  0.81894337    -0.16000
F2934       F  0.27213696  0.63883503  0.89990787    -0.14500
F2935       F  0.22259194  0.59653949  0.87475497    -0.14500
F2936       F  0.20873422  0.68321902  0.86684947    -0.15900
C2937       C  0.09133856  0.75398417  0.78792585     0.14100
C2938       C  0.09818353  0.77517365  0.79131704     0.01100
C2939       C  0.10598624  0.78100556  0.81166123     0.16100
C2940       C  0.10841341  0.76559457  0.82772151     0.25500
C2941       C  0.10342387  0.74412537  0.82361188    -0.40900
C2942       C  0.09424064  0.73849778  0.80388001     0.32500
C2943       C  0.10036784  0.79018568  0.77301179     0.01100
F2944       F  0.11312257  0.80116370  0.81540084    -0.13200
F2945       F  0.08911065  0.71783426  0.79970643    -0.13700
C2946       C  0.09218543  0.81111547  0.77393243     0.16100
C2947       C  0.09706081  0.82599342  0.75787446     0.25500
C2948       C  0.11017553  0.82016389  0.74045324    -0.40800
C2949       C  0.11733343  0.79877766  0.73910486     0.32400
C2950       C  0.11267107  0.78412110  0.75525548     0.14100
F2951       F  0.07986722  0.81730994  0.79067191    -0.13200
F2952       F  0.12967311  0.79203862  0.72258660    -0.13700
F2953       F  0.08948534  0.84624929  0.75986403    -0.16000
F2954       F  0.12138019  0.76424685  0.75412313    -0.14500
F2955       F  0.08298876  0.74806411  0.76872366    -0.14500
F2956       F  0.11746120  0.77126702  0.84667307    -0.15900
C2957       C  0.34851173  0.87702064  0.97049968     0.14100
C2958       C  0.33252267  0.86757386  0.98316825     0.01100
C2959       C  0.31553488  0.85686799  0.97299425     0.16100
C2960       C  0.31367152  0.85690401  0.95070077     0.25500
C2961       C  0.32890584  0.86743924  0.93798253    -0.40900
C2962       C  0.34677867  0.87686207  0.94804694     0.32500
C2963       C  0.33215456  0.87039792  0.00682627     0.01100
F2964       F  0.30029115  0.84690563  0.98476854    -0.13200
F2965       F  0.36173668  0.88724540  0.93627652    -0.13700
C2966       C  0.31447245  0.88044480  0.01633202     0.16100
C2967       C  0.31282428  0.88191214  0.03856934     0.25500
C2968       C  0.32893848  0.87347300  0.05201186    -0.40800
C2969       C  0.34712412  0.86414404  0.04246455     0.32400
C2970       C  0.34868145  0.86259455  0.02005716     0.14100
F2971       F  0.29866879  0.88892061  0.00396630    -0.13200
F2972       F  0.36301993  0.85579340  0.05477291    -0.13700
F2973       F  0.29541928  0.89184465  0.04690569    -0.16000
F2974       F  0.36595146  0.85279608  0.01132265    -0.14500
F2975       F  0.36505835  0.88755650  0.97986251    -0.14500
F2976       F  0.29661293  0.84701806  0.94152319    -0.15900
C2977       C  0.18365428  0.78054099  0.89114363     0.14100
C2978       C  0.20503885  0.77412660  0.89416024     0.01100
C2979       C  0.20971104  0.75223091  0.89633293     0.16100
C2980       C  0.19371724  0.73695911  0.89313987     0.25500
C2981       C  0.17275490  0.74333257  0.88802879    -0.40900
C2982       C  0.16756760  0.76520947  0.88823033     0.32500
C2983       C  0.22266247  0.78963584  0.89090626     0.01100
F2984       F  0.23008826  0.74563931  0.90012146    -0.13200
F2985       F  0.14736391  0.77177888  0.88360650    -0.13700
C2986       C  0.22488106  0.80802879  0.90362262     0.16100
C2987       C  0.24048709  0.82341767  0.89874874     0.25500
C2988       C  0.25406442  0.82071270  0.88090835    -0.40800
C2989       C  0.25208225  0.80178361  0.86870590     0.32400
C2990       C  0.23656611  0.78659869  0.87360771     0.14100
F2991       F  0.21180616  0.81117138  0.92062877    -0.13200
F2992       F  0.26476435  0.79799086  0.85152443    -0.13700
F2993       F  0.24190714  0.84111685  0.91123691    -0.16000
F2994       F  0.23447348  0.76923933  0.86070483    -0.14500
F2995       F  0.17866672  0.80157258  0.88901317    -0.14500
F2996       F  0.19886070  0.71589875  0.89418598    -0.15900
C2997       C  0.21375358  0.90580590  0.81782007     0.14100
C2998       C  0.21660331  0.90510023  0.79554629     0.01100
C2999       C  0.23726081  0.90264579  0.78726707     0.16100
C3000       C  0.25450847  0.89860709  0.80095006     0.25500
C3001       C  0.25143079  0.89718051  0.82322576    -0.40900
C3002       C  0.23113405  0.90212392  0.83163591     0.32500
C3003       C  0.19829127  0.90081416  0.78120902     0.01100
F3004       F  0.24030738  0.90184128  0.76576996    -0.13200
F3005       F  0.22759479  0.90115958  0.85303723    -0.13700
C3006       C  0.18916589  0.91675988  0.76818922     0.16100
C3007       C  0.17440306  0.91119697  0.75207771     0.25500
C3008       C  0.16909218  0.88957280  0.74861073    -0.40800
C3009       C  0.17765848  0.87388805  0.76239709     0.32400
C3010       C  0.19200744  0.87948710  0.77852487     0.14100
F3011       F  0.19516350  0.93747752  0.77055170    -0.13200
F3012       F  0.17249072  0.85292674  0.75999261    -0.13700
F3013       F  0.16634152  0.92670408  0.73913234    -0.16000
F3014       F  0.20078006  0.86384161  0.79086342    -0.14500
F3015       F  0.19384113  0.90811838  0.82609414    -0.14500
F3016       F  0.27394783  0.89455664  0.79226840    -0.15900
C3017       C  0.34121741  0.76473755  0.86099616     0.14100
C3018       C  0.36249548  0.75986180  0.85576721     0.01100
C3019       C  0.37717342  0.77673321  0.85305958     0.16100
C3020       C  0.37041802  0.79815133  0.85494977     0.25500
C3021       C  0.34882936  0.80291548  0.85920104    -0.40900
C3022       C  0.33446860  0.78595011  0.86265136     0.32500
C3023       C  0.36821231  0.73723734  0.85110436     0.01100
F3024       F  0.39783851  0.77246537  0.84799243    -0.13200
F3025       F  0.31356837  0.78994480  0.86699557    -0.13700
C3026       C  0.37310495  0.73110208  0.83005331     0.16100
C3027       C  0.37297303  0.70947030  0.82424876     0.25500
C3028       C  0.36811698  0.69352214  0.83943692    -0.40800
C3029       C  0.36517523  0.69955226  0.86090710     0.32400
C3030       C  0.36509220  0.72124080  0.86665172     0.14100
F3031       F  0.37633169  0.74612756  0.81470421    -0.13200
F3032       F  0.36063391  0.68462578  0.87600003    -0.13700
F3033       F  0.37675326  0.70416031  0.80352347    -0.16000
F3034       F  0.36068112  0.72672931  0.88718218    -0.14500
F3035       F  0.32655907  0.74888134  0.86320838    -0.14500
F3036       F  0.38459341  0.81414874  0.85126624    -0.15900
C3037       C  0.37153832  0.88344714  0.71652454     0.14100
C3038       C  0.37497078  0.87117343  0.73513805     0.01100
C3039       C  0.38147681  0.84974733  0.73306931     0.16100
C3040       C  0.38280857  0.84028531  0.71292096     0.25500
C3041       C  0.37772806  0.85202970  0.69439194    -0.40900
C3042       C  0.37296266  0.87393358  0.69624000     0.32500
C3043       C  0.36783812  0.87880648  0.75642459     0.01100
F3044       F  0.38445399  0.83730550  0.75066374    -0.13200
F3045       F  0.36763160  0.88555579  0.67864127    -0.13700
C3046       C  0.34606134  0.88340572  0.75946429     0.16100
C3047       C  0.33751724  0.88386939  0.78004444     0.25500
C3048       C  0.35051880  0.87960151  0.79801454    -0.40800
C3049       C  0.37273640  0.87748791  0.79514343     0.32400
C3050       C  0.38133124  0.87709377  0.77444708     0.14100
F3051       F  0.33255587  0.88517129  0.74246255    -0.13200
F3052       F  0.38583259  0.87370734  0.81211949    -0.13700
F3053       F  0.31616022  0.88700917  0.78227375    -0.16000
F3054       F  0.40255719  0.87329429  0.77191803    -0.14500
F3055       F  0.36537296  0.90421285  0.71807088    -0.14500
F3056       F  0.38766363  0.81915098  0.71160433    -0.15900
C3057       C  0.38249665  0.15531824  0.52436527     0.14100
C3058       C  0.36905626  0.16908112  0.51263285     0.01100
C3059       C  0.35641327  0.18402865  0.52355235     0.16100
C3060       C  0.35785378  0.18588147  0.54578707     0.25500
C3061       C  0.37200684  0.17279926  0.55757117    -0.40900
C3062       C  0.38392976  0.15710918  0.54672611     0.32500
C3063       C  0.37010074  0.16982158  0.48898999     0.01100
F3064       F  0.34325230  0.19741701  0.51252645    -0.13200
F3065       F  0.39811432  0.14464084  0.55753642    -0.13700
C3066       C  0.36148562  0.15340986  0.47626968     0.16100
C3067       C  0.36245011  0.15470206  0.45384026     0.25500
C3068       C  0.37211819  0.17245619  0.44387106    -0.40800
C3069       C  0.38075267  0.18879621  0.45684746     0.32400
C3070       C  0.37969523  0.18747507  0.47909627     0.14100
F3071       F  0.35173901  0.13641838  0.48558036    -0.13200
F3072       F  0.39067158  0.20598221  0.44805194    -0.13700
F3073       F  0.35341254  0.13893624  0.44193576    -0.16000
F3074       F  0.38829731  0.20342984  0.49109064    -0.14500
F3075       F  0.39523704  0.14112650  0.51402419    -0.14500
F3076       F  0.34578316  0.20090723  0.55578416    -0.15900
C3077       C  0.15272939  0.47588878  0.61465959     0.14100
C3078       C  0.16635765  0.48896528  0.62681703     0.01100
C3079       C  0.18219461  0.47965482  0.63977822     0.16100
C3080       C  0.18509872  0.45753773  0.63983497     0.25500
C3081       C  0.17207522  0.44439524  0.62700180    -0.40900
C3082       C  0.15547346  0.45366747  0.61484638     0.32500
C3083       C  0.16625248  0.51229731  0.62383922     0.01100
F3084       F  0.19538090  0.49213606  0.65174176    -0.13200
F3085       F  0.14285037  0.44137099  0.60211190    -0.13700
C3086       C  0.15163588  0.52539889  0.63461886     0.16100
C3087       C  0.15305069  0.54770087  0.63284856     0.25500
C3088       C  0.16913894  0.55715148  0.62015477    -0.40800
C3089       C  0.18336862  0.54367299  0.60895157     0.32400
C3090       C  0.18191898  0.52153334  0.61086631     0.14100
F3091       F  0.13644536  0.51659898  0.64733700    -0.13200
F3092       F  0.19889608  0.55179699  0.59618079    -0.13700
F3093       F  0.13914487  0.55994662  0.64412837    -0.16000
F3094       F  0.19609462  0.50898190  0.60024823    -0.14500
F3095       F  0.13759269  0.48473183  0.60174865    -0.14500
F3096       F  0.20083628  0.44896985  0.65221984    -0.15900
C3097       C  0.18637918  0.36578945  0.48016200     0.14100
C3098       C  0.16793623  0.37309701  0.49056986     0.01100
C3099       C  0.15016797  0.37943661  0.47820063     0.16100
C3100       C  0.15121461  0.37926620  0.45569117     0.25500
C3101       C  0.17011491  0.37277645  0.44522826    -0.40900
C3102       C  0.18749702  0.36560428  0.45786215     0.32500
C3103       C  0.16827331  0.37536782  0.51424423     0.01100
F3104       F  0.13217545  0.38666968  0.48791254    -0.13200
F3105       F  0.20579910  0.35841399  0.44868191    -0.13700
C3106       C  0.18329477  0.38909158  0.52375575     0.16100
C3107       C  0.18571722  0.38982118  0.54596313     0.25500
C3108       C  0.17312339  0.37677362  0.55937050    -0.40800
C3109       C  0.15740261  0.36362218  0.54983443     0.32400
C3110       C  0.15504579  0.36291841  0.52744581     0.14100
F3111       F  0.19588023  0.40172664  0.51140113    -0.13200
F3112       F  0.14480920  0.35089237  0.56206227    -0.13700
F3113       F  0.20043900  0.40348264  0.55427594    -0.16000
F3114       F  0.14044967  0.34945708  0.51863372    -0.14500
F3115       F  0.20357235  0.35905951  0.49172207    -0.14500
F3116       F  0.13411154  0.38634340  0.44424165    -0.15900
C3117       C  0.26895856  0.30754676  0.59229215     0.14100
C3118       C  0.27975417  0.29678205  0.60884292     0.01100
C3119       C  0.27516618  0.30175248  0.63017231     0.16100
C3120       C  0.25977209  0.31704581  0.63506778     0.25500
C3121       C  0.24844878  0.32772065  0.61863926    -0.40900
C3122       C  0.25338264  0.32299843  0.59713961     0.32500
C3123       C  0.29530903  0.27960631  0.60459729     0.01100
F3124       F  0.28558096  0.29155385  0.64636263    -0.13200
F3125       F  0.24273884  0.33280568  0.58088283    -0.13700
C3126       C  0.31713455  0.28440877  0.60268955     0.16100
C3127       C  0.33250548  0.26821467  0.60486983     0.25500
C3128       C  0.32614401  0.24702164  0.60918939    -0.40800
C3129       C  0.30413255  0.24210905  0.60929097     0.32400
C3130       C  0.28888628  0.25829632  0.60710418     0.14100
F3131       F  0.32357727  0.30502417  0.60055213    -0.13200
F3132       F  0.29731220  0.22179301  0.61277984    -0.13700
F3133       F  0.35352502  0.27365609  0.60474807    -0.16000
F3134       F  0.26782788  0.25342949  0.60917408    -0.14500
F3135       F  0.27322022  0.30279777  0.57155042    -0.14500
F3136       F  0.25617250  0.32152039  0.65602100    -0.15900
C3137       C  0.36480236  0.51558967  0.81559589     0.14100
C3138       C  0.37425033  0.50749225  0.83429230     0.01100
C3139       C  0.38075369  0.52160906  0.85049617     0.16100
C3140       C  0.37893075  0.54377032  0.84745110     0.25500
C3141       C  0.37059082  0.55198403  0.82808649    -0.40900
C3142       C  0.36285124  0.53755392  0.81253890     0.32500
C3143       C  0.37884978  0.48441136  0.83554074     0.01100
F3144       F  0.38990852  0.51396456  0.86870190    -0.13200
F3145       F  0.35383700  0.54464761  0.79402249    -0.13700
C3146       C  0.39398265  0.47565989  0.82157302     0.16100
C3147       C  0.39591002  0.45357973  0.81944564     0.25500
C3148       C  0.38252040  0.43972937  0.83115420    -0.40800
C3149       C  0.36843404  0.44856957  0.84635651     0.32400
C3150       C  0.36659705  0.47082141  0.84847310     0.14100
F3151       F  0.40632422  0.48861577  0.80929289    -0.13200
F3152       F  0.35560483  0.43580836  0.85829580    -0.13700
F3153       F  0.41062865  0.44582539  0.80551444    -0.16000
F3154       F  0.35201447  0.47910562  0.86220956    -0.14500
F3155       F  0.35812665  0.50211238  0.79988962    -0.14500
F3156       F  0.38647046  0.55708410  0.86287975    -0.15900
C3157       C  0.31230398  0.37734519  0.71950919     0.14100
C3158       C  0.30340824  0.39793341  0.71896585     0.01100
C3159       C  0.31105425  0.41359437  0.73321081     0.16100
C3160       C  0.32705078  0.40844323  0.74825740     0.25500
C3161       C  0.33521399  0.38746753  0.74938400    -0.40900
C3162       C  0.32802880  0.37217247  0.73447253     0.32500
C3163       C  0.28509108  0.40190215  0.70443674     0.01100
F3164       F  0.30272590  0.43364571  0.73281000    -0.13200
F3165       F  0.33598540  0.35194175  0.73461177    -0.13700
C3166       C  0.26431809  0.40315690  0.71280825     0.16100
C3167       C  0.24652438  0.40041954  0.69938945     0.25500
C3168       C  0.24927255  0.39656001  0.67735498    -0.40800
C3169       C  0.27007643  0.39727878  0.66877923     0.32400
C3170       C  0.28781015  0.39983496  0.68224397     0.14100
F3171       F  0.26132715  0.40510378  0.73423251    -0.13200
F3172       F  0.27347443  0.39337236  0.64768728    -0.13700
F3173       F  0.22668484  0.40040331  0.70813057    -0.16000
F3174       F  0.30777340  0.39853836  0.67385241    -0.14500
F3175       F  0.30497791  0.36185937  0.70612247    -0.14500
F3176       F  0.33369918  0.42356092  0.76236741    -0.15900
C3177       C  0.42092359  0.26722070  0.69405552     0.14100
C3178       C  0.40705065  0.28463001  0.69735183     0.01100
C3179       C  0.38890576  0.28701189  0.68419577     0.16100
C3180       C  0.38393461  0.27151015  0.66899304     0.25500
C3181       C  0.39700311  0.25341280  0.66665496    -0.40900
C3182       C  0.41596260  0.25168992  0.67866253     0.32500
C3183       C  0.40931974  0.29856785  0.71629385     0.01100
F3184       F  0.37501407  0.30343828  0.68726636    -0.13200
F3185       F  0.42868960  0.23420196  0.67670080    -0.13700
C3186       C  0.40973368  0.32088857  0.71392617     0.16100
C3187       C  0.40612624  0.33413336  0.73155043     0.25500
C3188       C  0.40190220  0.32516801  0.75181320    -0.40800
C3189       C  0.40361004  0.30287761  0.75447174     0.32400
C3190       C  0.40719372  0.28968822  0.73683301     0.14100
F3191       F  0.41210663  0.32979498  0.69424891    -0.13200
F3192       F  0.40062807  0.29372678  0.77394992    -0.13700
F3193       F  0.40492854  0.35558143  0.72832227    -0.16000
F3194       F  0.40661611  0.26814935  0.73954518    -0.14500
F3195       F  0.43860757  0.26473464  0.70650406    -0.14500
F3196       F  0.36570590  0.27358918  0.65724166    -0.15900
C3197       C  0.11209518  0.31740672  0.97539230     0.14100
C3198       C  0.12832548  0.32919325  0.98548096     0.01100
C3199       C  0.14292003  0.34072429  0.97291829     0.16100
C3200       C  0.14175473  0.33974176  0.95047561     0.25500
C3201       C  0.12599866  0.32711631  0.94035924    -0.40900
C3202       C  0.11092143  0.31634592  0.95313604     0.32500
C3203       C  0.13059933  0.32783483  0.00903906     0.01100
F3204       F  0.15882007  0.35213274  0.98237036    -0.13200
F3205       F  0.09495352  0.30467652  0.94410358    -0.13700
C3206       C  0.13503565  0.30795691  0.01844000     0.16100
C3207       C  0.13445356  0.30545010  0.04061066     0.25500
C3208       C  0.12941466  0.32289744  0.05408138    -0.40800
C3209       C  0.12589068  0.34311808  0.04457294     0.32400
C3210       C  0.12648616  0.34552117  0.02222670     0.14100
F3211       F  0.13945047  0.29072062  0.00598421    -0.13200
F3212       F  0.12101534  0.36040518  0.05674086    -0.13700
F3213       F  0.13846936  0.28568246  0.04872179    -0.16000
F3214       F  0.12205040  0.36488441  0.01341963    -0.14500
F3215       F  0.09749742  0.30656657  0.98722070    -0.14500
F3216       F  0.15661590  0.35029072  0.93872941    -0.15900
C3217       C  0.22493804  0.37687318  0.85847425     0.14100
C3218       C  0.24157138  0.36243232  0.86333525     0.01100
C3219       C  0.23641788  0.34216064  0.87149683     0.16100
C3220       C  0.21506329  0.33585453  0.87327641     0.25500
C3221       C  0.19839799  0.34974269  0.86707587    -0.40900
C3222       C  0.20346661  0.37062021  0.86046707     0.32500
C3223       C  0.26394695  0.36692321  0.85685904     0.01100
F3224       F  0.25209231  0.32777682  0.87604166    -0.13200
F3225       F  0.18776435  0.38426968  0.85412998    -0.13700
C3226       C  0.28081844  0.36642396  0.87182801     0.16100
C3227       C  0.30217685  0.36693240  0.86496602     0.25500
C3228       C  0.30698353  0.36765276  0.84295703    -0.40800
C3229       C  0.28995228  0.36944766  0.82814429     0.32400
C3230       C  0.26873182  0.36901200  0.83503066     0.14100
F3231       F  0.27658490  0.36461020  0.89304175    -0.13200
F3232       F  0.29376618  0.37091010  0.80680185    -0.13700
F3233       F  0.31805435  0.36536739  0.87977794    -0.16000
F3234       F  0.25280431  0.36916061  0.82017186    -0.14500
F3235       F  0.22953384  0.39659311  0.85065861    -0.14500
F3236       F  0.21066202  0.31565596  0.87994954    -0.15900
C3237       C  0.11684536  0.37922179  0.72225475     0.14100
C3238       C  0.13056080  0.38305841  0.73979942     0.01100
C3239       C  0.15176384  0.38932848  0.73589198     0.16100
C3240       C  0.15982022  0.38899283  0.71510616     0.25500
C3241       C  0.14686362  0.38236511  0.69788036    -0.40900
C3242       C  0.12496632  0.37886271  0.70135833     0.32500
C3243       C  0.12487884  0.37533299  0.76150475     0.01100
F3244       F  0.16541083  0.39333964  0.75237763    -0.13200
F3245       F  0.11198675  0.37290598  0.68494811    -0.13700
C3246       C  0.12063012  0.35343194  0.76419238     0.16100
C3247       C  0.12062340  0.34434017  0.78454032     0.25500
C3248       C  0.12491942  0.35686030  0.80270741    -0.40800
C3249       C  0.12742442  0.37908473  0.80032486     0.32400
C3250       C  0.12752250  0.38827181  0.77978645     0.14100
F3251       F  0.11853284  0.34035546  0.74696158    -0.13200
F3252       F  0.13157465  0.39155703  0.81762350    -0.13700
F3253       F  0.11760221  0.32293013  0.78640547    -0.16000
F3254       F  0.13147441  0.40950899  0.77765765    -0.14500
F3255       F  0.09609528  0.37382666  0.72558782    -0.14500
F3256       F  0.18080961  0.39357576  0.71199761    -0.15900
C3257       C  0.34852226  0.12095635  0.97863321     0.14100
C3258       C  0.33000506  0.12095076  0.99135278     0.01100
C3259       C  0.30990129  0.12193851  0.98134301     0.16100
C3260       C  0.30817181  0.12211675  0.95911836     0.25500
C3261       C  0.32661634  0.12155085  0.94613014    -0.40900
C3262       C  0.34687527  0.12133864  0.95621513     0.32500
C3263       C  0.33120476  0.11956846  0.01504332     0.01100
F3264       F  0.29174872  0.12290204  0.99318005    -0.13200
F3265       F  0.36510609  0.12104349  0.94448774    -0.13700
C3266       C  0.34250985  0.13488049  0.02704563     0.16100
C3267       C  0.34181050  0.13453754  0.04946212     0.25500
C3268       C  0.32946708  0.11909473  0.06023434    -0.40800
C3269       C  0.31862361  0.10347517  0.04816013     0.32400
C3270       C  0.31968402  0.10358559  0.02584486     0.14100
F3271       F  0.35345226  0.15073205  0.01707264    -0.13200
F3272       F  0.30713072  0.08789404  0.05795282    -0.13700
F3273       F  0.35244481  0.14988781  0.06057131    -0.16000
F3274       F  0.30927889  0.08808893  0.01470301    -0.14500
F3275       F  0.36819032  0.11998446  0.98788893    -0.14500
F3276       F  0.28822777  0.12300765  0.95044508    -0.15900
C3277       C  0.31049910  0.02143921  0.86736926     0.14100
C3278       C  0.32934547  0.01119788  0.87410107     0.01100
C3279       C  0.34711423  0.02370535  0.87992211     0.16100
C3280       C  0.34579900  0.04616813  0.87962167     0.25500
C3281       C  0.32662117  0.05649947  0.87350544    -0.40900
C3282       C  0.30913332  0.04375655  0.86699991     0.32500
C3283       C  0.32977651  0.98748911  0.87582034     0.01100
F3284       F  0.36541410  0.01416083  0.88679850    -0.13200
F3285       F  0.29050481  0.05286716  0.86040028    -0.13700
C3286       C  0.34208986  0.97502608  0.86176302     0.16100
C3287       C  0.34049757  0.95259955  0.86201202     0.25500
C3288       C  0.32649203  0.94229140  0.87633417    -0.40800
C3289       C  0.31477217  0.95488622  0.89086810     0.32400
C3290       C  0.31642560  0.97718921  0.89060770     0.14100
F3291       F  0.35489331  0.98462903  0.84713927    -0.13200
F3292       F  0.30161092  0.94559950  0.90539255    -0.13700
F3293       F  0.35178659  0.94108588  0.84750347    -0.16000
F3294       F  0.30470848  0.98883330  0.90467222    -0.14500
F3295       F  0.29322116  0.00971519  0.86134122    -0.14500
F3296       F  0.36292449  0.05771847  0.88634873    -0.15900
C3297       C  0.18972221  0.22771762  0.90951651     0.14100
C3298       C  0.20872388  0.22549389  0.89777227     0.01100
C3299       C  0.21227340  0.23905608  0.88022240     0.16100
C3300       C  0.19706972  0.25423091  0.87419451     0.25500
C3301       C  0.17754940  0.25608281  0.88533845    -0.40900
C3302       C  0.17425579  0.24289428  0.90339675     0.32500
C3303       C  0.22449152  0.20829914  0.90239775     0.01100
F3304       F  0.23025212  0.23705424  0.86824354    -0.13200
F3305       F  0.15591912  0.24427299  0.91487496    -0.13700
C3306       C  0.21862467  0.18667102  0.90029736     0.16100
C3307       C  0.23439112  0.17082127  0.89821211     0.25500
C3308       C  0.25615517  0.17650413  0.89793110    -0.40800
C3309       C  0.26192248  0.19776348  0.90238089     0.32400
C3310       C  0.24623989  0.21348273  0.90481633     0.14100
F3311       F  0.19773675  0.18116275  0.89802866    -0.13200
F3312       F  0.28281873  0.20357728  0.90288379    -0.13700
F3313       F  0.22833180  0.15039158  0.89407420    -0.16000
F3314       F  0.25233683  0.23411889  0.90773724    -0.14500
F3315       F  0.18610373  0.21512221  0.92682651    -0.14500
F3316       F  0.20156216  0.26694287  0.85716221    -0.15900
C3317       C  0.37510744  0.26123491  0.84786211     0.14100
C3318       C  0.37622310  0.25894256  0.87019268     0.01100
C3319       C  0.37803041  0.27734883  0.88301001     0.16100
C3320       C  0.37821975  0.29777148  0.87357621     0.25500
C3321       C  0.37627214  0.30003447  0.85119326    -0.40900
C3322       C  0.37519001  0.28144898  0.83847652     0.32500
C3323       C  0.37264172  0.23742677  0.87952276     0.01100
F3324       F  0.37896048  0.27555078  0.90464678    -0.13200
F3325       F  0.37365602  0.28276820  0.81681952    -0.13700
C3326       C  0.38567038  0.22009747  0.87342450     0.16100
C3327       C  0.37828592  0.19904361  0.87556669     0.25500
C3328       C  0.35774084  0.19517458  0.88369454    -0.40800
C3329       C  0.34607332  0.21231355  0.89243081     0.32400
C3330       C  0.35344718  0.23330186  0.89035384     0.14100
F3331       F  0.40455865  0.22370358  0.86341531    -0.13200
F3332       F  0.32656319  0.20887323  0.90121496    -0.13700
F3333       F  0.39003995  0.18278090  0.86730465    -0.16000
F3334       F  0.34060955  0.24965968  0.89661216    -0.14500
F3335       F  0.37257616  0.24383550  0.83509431    -0.14500
F3336       F  0.37909791  0.31527296  0.88638924    -0.15900
C3337       C  0.38140100  0.16412606  0.73771765     0.14100
C3338       C  0.37466197  0.14322474  0.74233066     0.01100
C3339       C  0.37130207  0.12888670  0.72528566     0.16100
C3340       C  0.37316170  0.13578466  0.70395838     0.25500
C3341       C  0.37815649  0.15726790  0.69932182    -0.40900
C3342       C  0.38320366  0.17106199  0.71650381     0.32500
C3343       C  0.36807522  0.13769490  0.76452736     0.01100
F3344       F  0.36513685  0.10847493  0.72931708    -0.13200
F3345       F  0.38886837  0.19170336  0.71283702    -0.13700
C3346       C  0.34633668  0.13405164  0.76878670     0.16100
C3347       C  0.33907858  0.13248561  0.78985733     0.25500
C3348       C  0.35340533  0.13428869  0.80722351    -0.40800
C3349       C  0.37535298  0.13677624  0.80302243     0.32400
C3350       C  0.38261494  0.13864667  0.78180605     0.14100
F3351       F  0.33184291  0.13349188  0.75253703    -0.13200
F3352       F  0.38949975  0.13895393  0.81941644    -0.13700
F3353       F  0.31778600  0.13000561  0.79334716    -0.16000
F3354       F  0.40369935  0.14220279  0.77813181    -0.14500
F3355       F  0.38458260  0.17840469  0.75378304    -0.14500
F3356       F  0.36845931  0.12186030  0.68796234    -0.15900
C3357       C  0.13839654  0.01956031  0.68225243     0.14100
C3358       C  0.12539711  0.01038882  0.66639998     0.01100
C3359       C  0.11385877  0.02367500  0.65237811     0.16100
C3360       C  0.11513700  0.04597090  0.65434958     0.25500
C3361       C  0.12776359  0.05523050  0.67060120    -0.40900
C3362       C  0.13953640  0.04176538  0.68441121     0.32500
C3363       C  0.12299789  0.98692663  0.66559648     0.01100
F3364       F  0.10096939  0.01501982  0.63714942    -0.13200
F3365       F  0.15206423  0.05009635  0.70013828    -0.13700
C3366       C  0.10595202  0.97716201  0.67632445     0.16100
C3367       C  0.10496412  0.95489491  0.67801824     0.25500
C3368       C  0.12100739  0.94197321  0.66888882    -0.40800
C3369       C  0.13756912  0.95182812  0.65726083     0.32400
C3370       C  0.13863132  0.97417148  0.65580970     0.14100
F3371       F  0.09065003  0.98927654  0.68581381    -0.13200
F3372       F  0.15331295  0.93993477  0.64823454    -0.13700
F3373       F  0.08834612  0.94597409  0.68872106    -0.16000
F3374       F  0.15524687  0.98342281  0.64540164    -0.14500
F3375       F  0.14949506  0.00691970  0.69607659    -0.14500
F3376       F  0.10316683  0.05844105  0.64112179    -0.15900
C3377       C  0.16350849  0.26647562  0.63381396     0.14100
C3378       C  0.14168165  0.26123460  0.63335246     0.01100
C3379       C  0.12644899  0.27781319  0.63232482     0.16100
C3380       C  0.13298036  0.29931475  0.63279741     0.25500
C3381       C  0.15485524  0.30448552  0.63455749    -0.40900
C3382       C  0.17002119  0.28777960  0.63425579     0.32500
C3383       C  0.13530066  0.23860175  0.63657751     0.01100
F3384       F  0.10525672  0.27314836  0.63148553    -0.13200
F3385       F  0.19132763  0.29201942  0.63483504    -0.13700
C3386       C  0.12441155  0.23279055  0.65532990     0.16100
C3387       C  0.12319514  0.21133241  0.66147339     0.25500
C3388       C  0.13272952  0.19529192  0.64892737    -0.40800
C3389       C  0.14195329  0.20087224  0.62923563     0.32400
C3390       C  0.14327023  0.22240419  0.62312431     0.14100
F3391       F  0.11668297  0.24801435  0.66872768    -0.13200
F3392       F  0.15151394  0.18576110  0.61694632    -0.13700
F3393       F  0.11381119  0.20630857  0.68039045    -0.16000
F3394       F  0.15364269  0.22758236  0.60479334    -0.14500
F3395       F  0.17861694  0.25089607  0.63517152    -0.14500
F3396       F  0.11789677  0.31494850  0.63264261    -0.15900
C3397       C  0.27475510  0.14125510  0.65290748     0.14100
C3398       C  0.26593127  0.13451606  0.63335345     0.01100
C3399       C  0.27862849  0.13500368  0.61485038     0.16100
C3400       C  0.29979996  0.14249095  0.61587084     0.25500
C3401       C  0.30839679  0.14995845  0.63537632    -0.40900
C3402       C  0.29568428  0.14896499  0.65392108     0.32500
C3403       C  0.24280737  0.12938708  0.63238963     0.01100
F3404       F  0.27032296  0.12877566  0.59574270    -0.13200
F3405       F  0.30337865  0.15584845  0.67307736    -0.13700
C3406       C  0.22849281  0.14454343  0.62390622     0.16100
C3407       C  0.20662047  0.14315590  0.62838073     0.25500
C3408       C  0.19872420  0.12645184  0.64112864    -0.40800
C3409       C  0.21272070  0.11016326  0.64787143     0.32400
C3410       C  0.23468054  0.11166906  0.64359359     0.14100
F3411       F  0.23596984  0.16188532  0.61321451    -0.13200
F3412       F  0.20548288  0.09402101  0.66044404    -0.13700
F3413       F  0.19339556  0.15916740  0.62191759    -0.16000
F3414       F  0.24823898  0.09678233  0.65183476    -0.14500
F3415       F  0.26265175  0.14139780  0.67091181    -0.14500
F3416       F  0.31142128  0.14358984  0.59759816    -0.15900
C3417       C  0.09345341  0.19670903  0.76071453     0.14100
C3418       C  0.10842544  0.20208905  0.77664730     0.01100
C3419       C  0.12817467  0.19142906  0.77741107     0.16100
C3420       C  0.13325648  0.17612361  0.76202105     0.25500
C3421       C  0.11852645  0.17098160  0.74574372    -0.40900
C3422       C  0.09838121  0.18103501  0.74545603     0.32500
C3423       C  0.10494990  0.22043769  0.79105025     0.01100
F3424       F  0.14298234  0.19665998  0.79249324    -0.13200
F3425       F  0.08403630  0.17661031  0.72969917    -0.13700
C3426       C  0.10226598  0.21725673  0.81310608     0.16100
C3427       C  0.10425285  0.23444787  0.82733920     0.25500
C3428       C  0.10935224  0.25504597  0.81965936    -0.40800
C3429       C  0.11019803  0.25835278  0.79732445     0.32400
C3430       C  0.10805273  0.24118571  0.78319954     0.14100
F3431       F  0.09906723  0.19725730  0.82092565    -0.13200
F3432       F  0.11433010  0.27800002  0.78909617    -0.13700
F3433       F  0.10290637  0.23051178  0.84866247    -0.16000
F3434       F  0.11080501  0.24453967  0.76190844    -0.14500
F3435       F  0.07439894  0.20708906  0.75959195    -0.14500
F3436       F  0.15275030  0.16651823  0.76283907    -0.15900
C3437       C  0.19228554  0.10254750  0.77798176     0.14100
C3438       C  0.21406276  0.10193217  0.77273398     0.01100
C3439       C  0.22019363  0.10133018  0.75117672     0.16100
C3440       C  0.20484563  0.10346098  0.73502035     0.25500
C3441       C  0.18312248  0.10624964  0.74027789    -0.40900
C3442       C  0.17686348  0.10459145  0.76185840     0.32500
C3443       C  0.23016544  0.10648495  0.78935156     0.01100
F3444       F  0.24122110  0.10032925  0.74587912    -0.13200
F3445       F  0.15608729  0.10714708  0.76759096    -0.13700
C3446       C  0.23454088  0.09193567  0.80588620     0.16100
C3447       C  0.24886738  0.09742160  0.82227863     0.25500
C3448       C  0.25884322  0.11766709  0.82240485    -0.40800
C3449       C  0.25431643  0.13211126  0.80559113     0.32400
C3450       C  0.24016268  0.12651547  0.78930979     0.14100
F3451       F  0.22491043  0.07249713  0.80613536    -0.13200
F3452       F  0.26301575  0.15199441  0.80510495    -0.13700
F3453       F  0.25293051  0.08288842  0.83794156    -0.16000
F3454       F  0.23556217  0.14106980  0.77379166    -0.14500
F3455       F  0.18612109  0.10337362  0.79878050    -0.14500
F3456       F  0.21137625  0.10407039  0.71432536    -0.15900
C3457       C  0.52750961  0.15489362  0.61493987     0.14100
C3458       C  0.51454332  0.16911323  0.62651152     0.01100
C3459       C  0.52419368  0.18511588  0.63895344     0.16100
C3460       C  0.54641921  0.18759574  0.63900792     0.25500
C3461       C  0.55947722  0.17400307  0.62668880    -0.40900
C3462       C  0.54984830  0.15717108  0.61518127     0.32500
C3463       C  0.49094008  0.16857208  0.62440990     0.01100
F3464       F  0.51196585  0.19902425  0.65026408    -0.13200
F3465       F  0.56190864  0.14373543  0.60315341    -0.13700
C3466       C  0.47811667  0.16233760  0.64172034     0.16100
C3467       C  0.45578618  0.16413633  0.64044770     0.25500
C3468       C  0.44596255  0.17265262  0.62197290    -0.40800
C3469       C  0.45886770  0.17838578  0.60446233     0.32400
C3470       C  0.48113968  0.17622041  0.60563831     0.14100
F3471       F  0.48729646  0.15500192  0.66004265    -0.13200
F3472       F  0.44991686  0.18620523  0.58621963    -0.13700
F3473       F  0.44386635  0.15861512  0.65770112    -0.16000
F3474       F  0.49324941  0.18243494  0.58875301    -0.14500
F3475       F  0.51846908  0.13919772  0.60294669    -0.14500
F3476       F  0.55516486  0.20360476  0.65082146    -0.15900
C3477       C  0.64004850  0.16530138  0.52122434     0.14100
C3478       C  0.62190816  0.17132262  0.50927411     0.01100
C3479       C  0.60352282  0.17830650  0.52010959     0.16100
C3480       C  0.60357394  0.18012711  0.54244852     0.25500
C3481       C  0.62199330  0.17488678  0.55440925    -0.40900
C3482       C  0.64007415  0.16697687  0.54362388     0.32500
C3483       C  0.62273194  0.17212468  0.48552959     0.01100
F3484       F  0.58559412  0.18366606  0.50897391    -0.13200
F3485       F  0.65818502  0.16205193  0.55464888    -0.13700
C3486       C  0.62506811  0.15344629  0.47326852     0.16100
C3487       C  0.62587359  0.15455472  0.45081828     0.25500
C3488       C  0.62441956  0.17445885  0.44018295    -0.40800
C3489       C  0.62235816  0.19315140  0.45274388     0.32400
C3490       C  0.62144530  0.19193081  0.47506204     0.14100
F3491       F  0.62604354  0.13407067  0.48303933    -0.13200
F3492       F  0.62132214  0.21280675  0.44353724    -0.13700
F3493       F  0.62756429  0.13607460  0.43956371    -0.16000
F3494       F  0.61955098  0.21025521  0.48656134    -0.14500
F3495       F  0.65811122  0.15885197  0.51110367    -0.14500
F3496       F  0.58558751  0.18703811  0.55242533    -0.15900
C3497       C  0.81467021  0.48332429  0.62914490     0.14100
C3498       C  0.83484794  0.49204949  0.62491034     0.01100
C3499       C  0.85247267  0.47826976  0.62259477     0.16100
C3500       C  0.84964309  0.45594438  0.62342634     0.25500
C3501       C  0.82908939  0.44711825  0.62664483    -0.40900
C3502       C  0.81179785  0.46122907  0.63010944     0.32500
C3503       C  0.83668814  0.51553350  0.62209663     0.01100
F3504       F  0.87220217  0.48639754  0.61866622    -0.13200
F3505       F  0.79186462  0.45370807  0.63421529    -0.13700
C3506       C  0.84648850  0.52830769  0.63780172     0.16100
C3507       C  0.84456058  0.55066877  0.63696955     0.25500
C3508       C  0.83265286  0.56054075  0.62046490    -0.40800
C3509       C  0.82384419  0.54770423  0.60418449     0.32400
C3510       C  0.82593481  0.52545426  0.60496006     0.14100
F3511       F  0.85682225  0.51908377  0.65459211    -0.13200
F3512       F  0.81297105  0.55669288  0.58759429    -0.13700
F3513       F  0.85317079  0.56254038  0.65302299    -0.16000
F3514       F  0.81679849  0.51344468  0.58930622    -0.14500
F3515       F  0.79752875  0.49635570  0.63205179    -0.14500
F3516       F  0.86681731  0.44307039  0.62013136    -0.15900
C3517       C  0.81100951  0.36626878  0.47688255     0.14100
C3518       C  0.82875277  0.37569999  0.48691789     0.01100
C3519       C  0.84548759  0.38377752  0.47438472     0.16100
C3520       C  0.84399007  0.38334523  0.45199836     0.25500
C3521       C  0.82563481  0.37488972  0.44189556    -0.40900
C3522       C  0.80945048  0.36582108  0.45462324     0.32500
C3523       C  0.82867996  0.37855732  0.51037012     0.01100
F3524       F  0.86271452  0.39309351  0.48382836    -0.13200
F3525       F  0.79192156  0.35669304  0.44554464    -0.13700
C3526       C  0.84351332  0.36791355  0.52354063     0.16100
C3527       C  0.84200073  0.36944966  0.54587141     0.25500
C3528       C  0.82560994  0.38172963  0.55528474    -0.40800
C3529       C  0.81123530  0.39290358  0.54186525     0.32400
C3530       C  0.81278854  0.39130760  0.51969148     0.14100
F3531       F  0.85888350  0.35535301  0.51478337    -0.13200
F3532       F  0.79553710  0.40540799  0.55014933    -0.13700
F3533       F  0.85593746  0.35815913  0.55820570    -0.16000
F3534       F  0.79857008  0.40210877  0.50721550    -0.14500
F3535       F  0.79489220  0.35790947  0.48874591    -0.14500
F3536       F  0.85992657  0.39226303  0.44031420    -0.15900
C3537       C  0.73824564  0.29486857  0.59682266     0.14100
C3538       C  0.71758632  0.30292895  0.59312215     0.01100
C3539       C  0.71458811  0.32521567  0.59207541     0.16100
C3540       C  0.73159046  0.33917437  0.59658346     0.25500
C3541       C  0.75180870  0.33098987  0.60243210    -0.40900
C3542       C  0.75514978  0.30873188  0.60144525     0.32500
C3543       C  0.69901934  0.28821992  0.59465937     0.01100
F3544       F  0.69485825  0.33340914  0.58801799    -0.13200
F3545       F  0.77459983  0.30024148  0.60607370    -0.13700
C3546       C  0.68522121  0.29016535  0.61225545     0.16100
C3547       C  0.67055216  0.27403232  0.61692119     0.25500
C3548       C  0.66915995  0.25574591  0.60397275    -0.40800
C3549       C  0.68185776  0.25435003  0.58551677     0.32400
C3550       C  0.69685330  0.27044666  0.58096461     0.14100
F3551       F  0.68716693  0.30687911  0.62599246    -0.13200
F3552       F  0.68085819  0.23674121  0.57285805    -0.13700
F3553       F  0.65835643  0.27574849  0.63478159    -0.16000
F3554       F  0.70995387  0.26821453  0.56383380    -0.14500
F3555       F  0.74169935  0.27345033  0.59789072    -0.14500
F3556       F  0.72776161  0.36054704  0.59696878    -0.15900
C3557       C  0.61273905  0.47730191  0.84606092     0.14100
C3558       C  0.62623458  0.48944992  0.83281266     0.01100
C3559       C  0.64082969  0.47888946  0.81946756     0.16100
C3560       C  0.64113699  0.45660463  0.81837359     0.25500
C3561       C  0.62695973  0.44437185  0.83075230    -0.40900
C3562       C  0.61318167  0.45483029  0.84512178     0.32500
C3563       C  0.62369133  0.51292523  0.83065540     0.01100
F3564       F  0.65425162  0.49029422  0.80681298    -0.13200
F3565       F  0.59917395  0.44338774  0.85708098    -0.13700
C3566       C  0.63073174  0.52706362  0.84663529     0.16100
C3567       C  0.63030797  0.54927884  0.84310256     0.25500
C3568       C  0.62278469  0.55772507  0.82344075    -0.40800
C3569       C  0.61517167  0.54325131  0.80777878     0.32400
C3570       C  0.61562647  0.52123432  0.81140982     0.14100
F3571       F  0.63859364  0.51932892  0.86539433    -0.13200
F3572       F  0.60722283  0.55023356  0.78875417    -0.13700
F3573       F  0.63759028  0.56239536  0.85881980    -0.16000
F3574       F  0.60832361  0.50785268  0.79590293    -0.14500
F3575       F  0.59831488  0.48717845  0.85889361    -0.14500
F3576       F  0.65500356  0.44691751  0.80478484    -0.15900
C3577       C  0.52563846  0.38946449  0.82653614     0.14100
C3578       C  0.51642637  0.37183483  0.83679133     0.01100
C3579       C  0.52965114  0.35600950  0.84579191     0.16100
C3580       C  0.55196662  0.35748141  0.84386400     0.25500
C3581       C  0.56116628  0.37467487  0.83262636    -0.40900
C3582       C  0.54777256  0.39089255  0.82444175     0.32500
C3583       C  0.49304912  0.36907923  0.83559347     0.01100
F3584       F  0.52090307  0.33875392  0.85560115    -0.13200
F3585       F  0.55611530  0.40808359  0.81413632    -0.13700
C3586       C  0.48405021  0.36072460  0.81681315     0.16100
C3587       C  0.46194399  0.36105961  0.81370337     0.25500
C3588       C  0.44835837  0.36979593  0.82940282    -0.40800
C3589       C  0.45739976  0.37734030  0.84867716     0.32400
C3590       C  0.47965112  0.37709224  0.85167226     0.14100
F3591       F  0.49683866  0.35304461  0.80105896    -0.13200
F3592       F  0.44486869  0.38613462  0.86403413    -0.13700
F3593       F  0.45388052  0.35316247  0.79509964    -0.16000
F3594       F  0.48819102  0.38557454  0.86978114    -0.14500
F3595       F  0.51305817  0.40493209  0.81780870    -0.14500
F3596       F  0.56443407  0.34155637  0.85186561    -0.15900
C3597       C  0.63028457  0.30568734  0.72430496     0.14100
C3598       C  0.60929181  0.29865570  0.72089505     0.01100
C3599       C  0.59261120  0.30746370  0.73305236     0.16100
C3600       C  0.59708557  0.32274749  0.74897383     0.25500
C3601       C  0.61835597  0.32918148  0.75299932    -0.40900
C3602       C  0.63481425  0.32072472  0.74011655     0.32500
C3603       C  0.60581216  0.28088511  0.70570491     0.01100
F3604       F  0.57216671  0.30086685  0.72987826    -0.13200
F3605       F  0.65545898  0.32698868  0.74275255    -0.13700
C3606       C  0.61062865  0.25999581  0.71232781     0.16100
C3607       C  0.61367983  0.24378619  0.69725723     0.25500
C3608       C  0.61200076  0.24820252  0.67517110    -0.40800
C3609       C  0.60522349  0.26877236  0.66869855     0.32400
C3610       C  0.60231393  0.28502170  0.68388843     0.14100
F3611       F  0.61399444  0.25569930  0.73338452    -0.13200
F3612       F  0.60312360  0.27370206  0.64762588    -0.13700
F3613       F  0.61932501  0.22401005  0.70430046    -0.16000
F3614       F  0.59767529  0.30516398  0.67718727    -0.14500
F3615       F  0.64657906  0.29751636  0.71252618    -0.14500
F3616       F  0.58078763  0.33057096  0.76094218    -0.15900
C3617       C  0.68491478  0.39609020  0.71695549     0.14100
C3618       C  0.70510410  0.40479531  0.72168198     0.01100
C3619       C  0.70936325  0.41238402  0.74243392     0.16100
C3620       C  0.69450392  0.40924667  0.75876326     0.25500
C3621       C  0.67510621  0.39881327  0.75440820    -0.40900
C3622       C  0.66992031  0.39325567  0.73322591     0.32500
C3623       C  0.72279967  0.40207042  0.70634888     0.01100
F3624       F  0.72856989  0.42137328  0.74716525    -0.13200
F3625       F  0.65134821  0.38289681  0.72872221    -0.13700
C3626       C  0.72205336  0.41124985  0.68585996     0.16100
C3627       C  0.73787479  0.40639854  0.67078669     0.25500
C3628       C  0.75454867  0.39201511  0.67598338    -0.40800
C3629       C  0.75546294  0.38341792  0.69683245     0.32400
C3630       C  0.73975463  0.38834703  0.71177257     0.14100
F3631       F  0.70571043  0.42448664  0.68030177    -0.13200
F3632       F  0.77128953  0.36971151  0.70276539    -0.13700
F3633       F  0.73624958  0.41494832  0.65087506    -0.16000
F3634       F  0.74046881  0.37874476  0.73127428    -0.14500
F3635       F  0.68056554  0.38830187  0.69712690    -0.14500
F3636       F  0.69950315  0.41529493  0.77904106    -0.15900
C3637       C  0.97991950  0.12247465  0.65018173     0.14100
C3638       C  0.99291484  0.12915295  0.66730807     0.01100
C3639       C  0.98328173  0.13639432  0.68619326     0.16100
C3640       C  0.96102748  0.13628292  0.68830700     0.25500
C3641       C  0.94783011  0.12886209  0.67151441    -0.40900
C3642       C  0.95753085  0.12238323  0.65221403     0.32500
C3643       C  0.01648509  0.12670057  0.66661474     0.01100
F3644       F  0.99555928  0.14315994  0.70284163    -0.13200
F3645       F  0.94546146  0.11495097  0.63571242    -0.13700
C3646       C  0.02948091  0.14165216  0.65605614     0.16100
C3647       C  0.05188812  0.14020526  0.65753388     0.25500
C3648       C  0.06157241  0.12382324  0.66974115    -0.40800
C3649       C  0.04836752  0.10850086  0.67965033     0.32400
C3650       C  0.02611526  0.10996468  0.67809367     0.14100
F3651       F  0.02046186  0.15807368  0.64501261    -0.13200
F3652       F  0.05698698  0.09199712  0.69090908    -0.13700
F3653       F  0.06402446  0.15536251  0.64786834    -0.16000
F3654       F  0.01384709  0.09516449  0.68814368    -0.14500
F3655       F  0.98895377  0.11519134  0.63185708    -0.14500
F3656       F  0.95241313  0.14338762  0.70691354    -0.15900
C3657       C  0.87872957  0.97952153  0.64868072     0.14100
C3658       C  0.86986168  0.99241454  0.66476275     0.01100
C3659       C  0.86029406  0.98269022  0.68254106     0.16100
C3660       C  0.86052260  0.96046243  0.68484178     0.25500
C3661       C  0.87044594  0.94741126  0.66938306    -0.40900
C3662       C  0.87897679  0.95716634  0.65091118     0.32500
C3663       C  0.87315722  0.01585987  0.66482225     0.01100
F3664       F  0.85143029  0.99487486  0.69815654    -0.13200
F3665       F  0.88871374  0.94523476  0.63563086    -0.13700
C3666       C  0.86058186  0.02967531  0.65222126     0.16100
C3667       C  0.86287900  0.05197625  0.65413890     0.25500
C3668       C  0.87776455  0.06068471  0.66875316    -0.40800
C3669       C  0.89072200  0.04660910  0.68080557     0.32400
C3670       C  0.88840376  0.02451478  0.67884108     0.14100
F3671       F  0.84559583  0.02158262  0.63869727    -0.13200
F3672       F  0.90570747  0.05421846  0.69462686    -0.13700
F3673       F  0.84987281  0.06497645  0.64249528    -0.16000
F3674       F  0.90089980  0.01143073  0.69095818    -0.14500
F3675       F  0.88821465  0.98864461  0.63143830    -0.14500
F3676       F  0.85134532  0.95175306  0.70246875    -0.15900
C3677       C  0.78241567  0.13696147  0.61874304     0.14100
C3678       C  0.76509254  0.13579791  0.63302400     0.01100
C3679       C  0.76921532  0.13218838  0.65485419     0.16100
C3680       C  0.79020844  0.13133347  0.66249611     0.25500
C3681       C  0.80759023  0.13418658  0.64849897    -0.40900
C3682       C  0.80353996  0.13610030  0.62641098     0.32500
C3683       C  0.74307595  0.14158248  0.62610690     0.01100
F3684       F  0.75290208  0.13117101  0.66910863    -0.13200
F3685       F  0.81990864  0.13875978  0.61245797    -0.13700
C3686       C  0.72564906  0.12808724  0.63051973     0.16100
C3687       C  0.70461353  0.13568077  0.62852058     0.25500
C3688       C  0.70069908  0.15697238  0.62217881    -0.40800
C3689       C  0.71815112  0.16980636  0.61607935     0.32400
C3690       C  0.73909453  0.16221167  0.61808534     0.14100
F3691       F  0.72905237  0.10795769  0.63796924    -0.13200
F3692       F  0.71502442  0.19019881  0.60924418    -0.13700
F3693       F  0.68825440  0.12277664  0.63454720    -0.16000
F3694       F  0.75555220  0.17572807  0.61393148    -0.14500
F3695       F  0.77884315  0.13999013  0.59750955    -0.14500
F3696       F  0.79351307  0.12861264  0.68383375    -0.15900
C3697       C  0.84614637  0.26784719  0.61699183     0.14100
C3698       C  0.86793741  0.26445916  0.62130080     0.01100
C3699       C  0.88156072  0.28227001  0.62325049     0.16100
C3700       C  0.87317815  0.30313020  0.62272650     0.25500
C3701       C  0.85098636  0.30639409  0.62060025    -0.40900
C3702       C  0.83776253  0.28856957  0.61667375     0.32500
C3703       C  0.87503384  0.24290736  0.62837365     0.01100
F3704       F  0.90273951  0.27937112  0.62717564    -0.13200
F3705       F  0.81639449  0.29111987  0.61376923    -0.13700
C3706       C  0.87411076  0.22504798  0.61467649     0.16100
C3707       C  0.87616585  0.20421514  0.62300263     0.25500
C3708       C  0.87872803  0.20105078  0.64518414    -0.40800
C3709       C  0.88119345  0.21907514  0.65849069     0.32400
C3710       C  0.87935502  0.23970967  0.65019150     0.14100
F3711       F  0.87005787  0.22776239  0.59348752    -0.13200
F3712       F  0.88410415  0.21671082  0.67990595    -0.13700
F3713       F  0.87382912  0.18722244  0.60969614    -0.16000
F3714       F  0.87986176  0.25657858  0.66387307    -0.14500
F3715       F  0.83257098  0.25099503  0.61517299    -0.14500
F3716       F  0.88647028  0.31992075  0.62625119    -0.15900
C3717       C  0.65299287  0.11891913  0.02290862     0.14100
C3718       C  0.67129429  0.12361489  0.01064751     0.01100
C3719       C  0.68998042  0.13017031  0.02141240     0.16100
C3720       C  0.69078607  0.13099041  0.04377784     0.25500
C3721       C  0.67278287  0.12561720  0.05619470    -0.40900
C3722       C  0.65368547  0.12003570  0.04545109     0.32500
C3723       C  0.67162858  0.12091808  0.98680537     0.01100
F3724       F  0.70768010  0.13573527  0.01018882    -0.13200
F3725       F  0.63599243  0.11461789  0.05674043    -0.13700
C3726       C  0.65700360  0.13163835  0.97333182     0.16100
C3727       C  0.65888242  0.13040714  0.95088546     0.25500
C3728       C  0.67556657  0.11851825  0.94135242    -0.40800
C3729       C  0.68968939  0.10721827  0.95503318     0.32400
C3730       C  0.68762102  0.10829722  0.97731011     0.14100
F3731       F  0.64137373  0.14401869  0.98187631    -0.13200
F3732       F  0.70573139  0.09502239  0.94696933    -0.13700
F3733       F  0.64473088  0.14144280  0.93857461    -0.16000
F3734       F  0.70145633  0.09693561  0.98971480    -0.14500
F3735       F  0.63472049  0.11231919  0.01314454    -0.14500
F3736       F  0.70938278  0.13706788  0.05329619    -0.15900
C3737       C  0.65281901  0.02039633  0.87145491     0.14100
C3738       C  0.67033327  0.00776341  0.86515295     0.01100
C3739       C  0.68911367  0.01786083  0.85836115     0.16100
C3740       C  0.69100542  0.04006233  0.85919195     0.25500
C3741       C  0.67416132  0.05287639  0.86711814    -0.40900
C3742       C  0.65468283  0.04282489  0.87242162     0.32500
C3743       C  0.67032081  0.98416408  0.86780271     0.01100
F3744       F  0.70603584  0.00605378  0.85159015    -0.13200
F3745       F  0.63786726  0.05449285  0.87961360    -0.13700
C3746       C  0.65756721  0.97081657  0.85491943     0.16100
C3747       C  0.65916967  0.94844967  0.85674927     0.25500
C3748       C  0.67367579  0.93915863  0.87139851    -0.40800
C3749       C  0.68612394  0.95267042  0.88447152     0.32400
C3750       C  0.68440982  0.97486350  0.88271280     0.14100
F3751       F  0.64417696  0.97942069  0.84007131    -0.13200
F3752       F  0.69982344  0.94439920  0.89925324    -0.13700
F3753       F  0.64720739  0.93591212  0.84362575    -0.16000
F3754       F  0.69666357  0.98740173  0.89558336    -0.14500
F3755       F  0.63436488  0.01095151  0.87780940    -0.14500
F3756       F  0.70968727  0.04893532  0.85262311    -0.15900
C3757       C  0.65262206  0.11397112  0.76629804     0.14100
C3758       C  0.64095252  0.13126869  0.75778917     0.01100
C3759       C  0.63235710  0.14656804  0.77184743     0.16100
C3760       C  0.63672458  0.14546073  0.79385686     0.25500
C3761       C  0.64936130  0.12879405  0.80218012    -0.40900
C3762       C  0.65669147  0.11269847  0.78835071     0.32500
C3763       C  0.64065489  0.13538839  0.73436132     0.01100
F3764       F  0.62135571  0.16362106  0.76401519    -0.13200
F3765       F  0.66942151  0.09679129  0.79597795    -0.13700
C3766       C  0.62135116  0.13610130  0.72271599     0.16100
C3767       C  0.62108555  0.14319534  0.70135408     0.25500
C3768       C  0.64010317  0.15003316  0.69149126    -0.40800
C3769       C  0.65953208  0.14813920  0.70287203     0.32400
C3770       C  0.65979450  0.14085792  0.72402777     0.14100
F3771       F  0.60270705  0.13052975  0.73225922    -0.13200
F3772       F  0.67831875  0.15386555  0.69365124    -0.13700
F3773       F  0.60210610  0.14463642  0.69081177    -0.16000
F3774       F  0.67867684  0.14033213  0.73485953    -0.14500
F3775       F  0.66120699  0.09906105  0.75308070    -0.14500
F3776       F  0.62995484  0.16149556  0.80682290    -0.15900
C3777       C  0.66778432  0.23318945  0.87327020     0.14100
C3778       C  0.64677660  0.23839949  0.86719758     0.01100
C3779       C  0.63181429  0.22183859  0.86434684     0.16100
C3780       C  0.63808700  0.20033724  0.86637982     0.25500
C3781       C  0.65955369  0.19506920  0.87093661    -0.40900
C3782       C  0.67411117  0.21181025  0.87516303     0.32500
C3783       C  0.64157601  0.26080631  0.86114885     0.01100
F3784       F  0.61137205  0.22649723  0.85857602    -0.13200
F3785       F  0.69486174  0.20750484  0.88010104    -0.13700
C3786       C  0.63783315  0.26583175  0.83955396     0.16100
C3787       C  0.63648882  0.28714291  0.83290691     0.25500
C3788       C  0.63889506  0.30399528  0.84771989    -0.40800
C3789       C  0.64134067  0.29894579  0.86957185     0.32400
C3790       C  0.64284324  0.27750315  0.87619181     0.14100
F3791       F  0.63681647  0.25008090  0.82462912    -0.13200
F3792       F  0.64362830  0.31470256  0.88433437    -0.13700
F3793       F  0.63339243  0.29129669  0.81177146    -0.16000
F3794       F  0.64629400  0.27301852  0.89718563    -0.14500
F3795       F  0.68265679  0.24881889  0.87576649    -0.14500
F3796       F  0.62356370  0.18475108  0.86221388    -0.15900
C3797       C  0.78416864  0.10114012  0.81008232     0.14100
C3798       C  0.77853390  0.09821945  0.78848894     0.01100
C3799       C  0.75687251  0.09531322  0.78302186     0.16100
C3800       C  0.74096737  0.09760843  0.79854029     0.25500
C3801       C  0.74655027  0.10235746  0.81984659    -0.40900
C3802       C  0.76830403  0.10298525  0.82568292     0.32500
C3803       C  0.79452837  0.10244884  0.77156884     0.01100
F3804       F  0.75108342  0.09176985  0.76235045    -0.13200
F3805       F  0.77420990  0.10771394  0.84607669    -0.13700
C3806       C  0.81366899  0.09071480  0.77015670     0.16100
C3807       C  0.82956656  0.09670107  0.75549646     0.25500
C3808       C  0.82659350  0.11465827  0.74208725    -0.40800
C3809       C  0.80701784  0.12595171  0.74332488     0.32400
C3810       C  0.79133948  0.11996074  0.75789759     0.14100
F3811       F  0.81705920  0.07364687  0.78317970    -0.13200
F3812       F  0.80296481  0.14319991  0.73071170    -0.13700
F3813       F  0.84803053  0.08527757  0.75492034    -0.16000
F3814       F  0.77331208  0.13202896  0.75935115    -0.14500
F3815       F  0.80489384  0.10440858  0.81577005    -0.14500
F3816       F  0.72009670  0.09630733  0.79254706    -0.15900
C3817       C  0.86206452  0.31514739  0.97871501     0.14100
C3818       C  0.87373709  0.33162795  0.98845556     0.01100
C3819       C  0.88523933  0.34604589  0.97569887     0.16100
C3820       C  0.88550089  0.34365004  0.95338478     0.25500
C3821       C  0.87451764  0.32655813  0.94363278    -0.40900
C3822       C  0.86245127  0.31258706  0.95651897     0.32500
C3823       C  0.87542163  0.33226666  0.01200352     0.01100
F3824       F  0.89686773  0.36189438  0.98493646    -0.13200
F3825       F  0.85120934  0.29624305  0.94764161    -0.13700
C3826       C  0.89114157  0.31991611  0.02226892     0.16100
C3827       C  0.89156614  0.31835794  0.04455715     0.25500
C3828       C  0.87638021  0.32931321  0.05698682    -0.40800
C3829       C  0.86104065  0.34228837  0.04672553     0.32400
C3830       C  0.86045939  0.34359179  0.02430492     0.14100
F3831       F  0.90576526  0.30891846  0.01060867    -0.13200
F3832       F  0.84602711  0.35280339  0.05832130    -0.13700
F3833       F  0.90687299  0.30612780  0.05405069    -0.16000
F3834       F  0.84495374  0.35534111  0.01455534    -0.14500
F3835       F  0.85087564  0.30106300  0.99084430    -0.14500
F3836       F  0.89748040  0.35725319  0.94147880    -0.15900
C3837       C  0.02620874  0.34721414  0.88582604     0.14100
C3838       C  0.01298337  0.33294630  0.87455584     0.01100
C3839       C  0.02230498  0.31681771  0.86211061     0.16100
C3840       C  0.04452909  0.31448095  0.86142087     0.25500
C3841       C  0.05794124  0.32838602  0.87307718    -0.40900
C3842       C  0.04856014  0.34508496  0.88495700     0.32500
C3843       C  0.98944805  0.33352925  0.87686497     0.01100
F3844       F  0.00976407  0.30282543  0.85118248    -0.13200
F3845       F  0.06093497  0.35862613  0.89661275    -0.13700
C3846       C  0.97646889  0.34225716  0.86066582     0.16100
C3847       C  0.95415731  0.34001886  0.86148407     0.25500
C3848       C  0.94453137  0.32865392  0.87837779    -0.40800
C3849       C  0.95764303  0.32062563  0.89498334     0.32400
C3850       C  0.97986352  0.32311528  0.89423165     0.14100
F3851       F  0.98549273  0.35233357  0.84371128    -0.13200
F3852       F  0.94898257  0.31015501  0.91190806    -0.13700
F3853       F  0.94211216  0.34798371  0.84519077    -0.16000
F3854       F  0.99215228  0.31457661  0.91005685    -0.14500
F3855       F  0.01744526  0.36282946  0.89807834    -0.14500
F3856       F  0.05293156  0.29844435  0.84944825    -0.15900
C3857       C  0.78862651  0.18117047  0.87457280     0.14100
C3858       C  0.78882771  0.19262422  0.89392857     0.01100
C3859       C  0.77339939  0.18786271  0.90958790     0.16100
C3860       C  0.75721575  0.17289847  0.90535948     0.25500
C3861       C  0.75617805  0.16272422  0.88534620    -0.40900
C3862       C  0.77244657  0.16640710  0.87032308     0.32500
C3863       C  0.80335670  0.21124707  0.89627324     0.01100
F3864       F  0.77353439  0.19833402  0.92861021    -0.13200
F3865       F  0.77225254  0.15618410  0.85114158    -0.13700
C3866       C  0.79467789  0.23189716  0.89832492     0.16100
C3867       C  0.80768334  0.24994917  0.89612479     0.25500
C3868       C  0.82967718  0.24772470  0.89194310    -0.40800
C3869       C  0.83860161  0.22700629  0.89130294     0.32400
C3870       C  0.82553626  0.20895266  0.89340800     0.14100
F3871       F  0.77329039  0.23464044  0.90088301    -0.13200
F3872       F  0.85968074  0.22412212  0.88697460    -0.13700
F3873       F  0.79857539  0.26963325  0.89725798    -0.16000
F3874       F  0.83438522  0.18919143  0.89160058    -0.14500
F3875       F  0.80323598  0.18535563  0.85910227    -0.14500
F3876       F  0.74176733  0.16948986  0.92017576    -0.15900
C3877       C  0.90302641  0.21333363  0.75927845     0.14100
C3878       C  0.90445331  0.20519920  0.78019246     0.01100
C3879       C  0.90477263  0.18294734  0.78335756     0.16100
C3880       C  0.90166668  0.16907506  0.76608888     0.25500
C3881       C  0.89820282  0.17731996  0.74538237    -0.40900
C3882       C  0.90005638  0.19949525  0.74200133     0.32500
C3883       C  0.90167000  0.21977714  0.79858428     0.01100
F3884       F  0.90650799  0.17473428  0.80341947    -0.13200
F3885       F  0.89776873  0.20790198  0.72209012    -0.13700
C3886       C  0.88351631  0.21742114  0.81156070     0.16100
C3887       C  0.87867182  0.23272809  0.82694525     0.25500
C3888       C  0.89188913  0.25064122  0.82973013    -0.40800
C3889       C  0.91059906  0.25262385  0.81753564     0.32400
C3890       C  0.91539856  0.23730600  0.80189108     0.14100
F3891       F  0.86968361  0.20097083  0.80842716    -0.13200
F3892       F  0.92341977  0.26998505  0.81984483    -0.13700
F3893       F  0.86064662  0.23038131  0.83878900    -0.16000
F3894       F  0.93299965  0.23990711  0.78951240    -0.14500
F3895       F  0.90251638  0.23476058  0.75575570    -0.14500
F3896       F  0.90005686  0.14777539  0.76999685    -0.15900
C3897       C  0.87096170  0.33739190  0.76427325     0.14100
C3898       C  0.86798393  0.35923277  0.75996549     0.01100
C3899       C  0.86696922  0.37369109  0.77717574     0.16100
C3900       C  0.86800151  0.36629627  0.79838687     0.25500
C3901       C  0.86983431  0.34425007  0.80271662    -0.40900
C3902       C  0.87188580  0.32997162  0.78536298     0.32500
C3903       C  0.86294266  0.36614953  0.73776251     0.01100
F3904       F  0.86409974  0.39488662  0.77340954    -0.13200
F3905       F  0.87408888  0.30862096  0.78876348    -0.13700
C3906       C  0.84230260  0.37370000  0.73297773     0.16100
C3907       C  0.83567980  0.37604304  0.71173098     0.25500
C3908       C  0.84953320  0.37089486  0.69480821    -0.40800
C3909       C  0.87076532  0.36505502  0.69951373     0.32400
C3910       C  0.87738147  0.36252386  0.72089236     0.14100
F3911       F  0.82794473  0.37714435  0.74886148    -0.13200
F3912       F  0.88452528  0.36013541  0.68349960    -0.13700
F3913       F  0.81528042  0.38236895  0.70763440    -0.16000
F3914       F  0.89751261  0.35548694  0.72513043    -0.14500
F3915       F  0.87150733  0.32299570  0.74801454    -0.14500
F3916       F  0.86574857  0.38054875  0.81460084    -0.15900
C3917       C  0.76743099  0.34837310  0.87864955     0.14100
C3918       C  0.76468334  0.37030343  0.87432017     0.01100
C3919       C  0.78298137  0.38315407  0.87148557     0.16100
C3920       C  0.80349458  0.37392959  0.87168102     0.25500
C3921       C  0.80594000  0.35176030  0.87471835    -0.40900
C3922       C  0.78779466  0.33928236  0.87899299     0.32500
C3923       C  0.74275475  0.37846377  0.86970282     0.01100
F3924       F  0.78093611  0.40442789  0.86760944    -0.13200
F3925       F  0.78971998  0.31795154  0.88265265    -0.13700
C3926       C  0.72568914  0.37375258  0.88362530     0.16100
C3927       C  0.70447025  0.37469538  0.87628523     0.25500
C3928       C  0.70009244  0.38074881  0.85507720    -0.40800
C3929       C  0.71689713  0.38817222  0.84217708     0.32400
C3930       C  0.73806231  0.38696615  0.84935547     0.14100
F3931       F  0.72970252  0.36642786  0.90371051    -0.13200
F3932       F  0.71291137  0.39500563  0.82190495    -0.13700
F3933       F  0.68852676  0.36752006  0.88909539    -0.16000
F3934       F  0.75397950  0.39191433  0.83549321    -0.14500
F3935       F  0.75026756  0.33528041  0.88087075    -0.14500
F3936       F  0.82074533  0.38635496  0.86735700    -0.15900
loop_ 
_geom_bond_atom_site_label_1 
_geom_bond_atom_site_label_2 
_geom_bond_distance 
_geom_bond_site_symmetry_2 
_ccdc_geom_bond_type 
Fe1          O17   2.056       .  S
Fe1           O7   2.056       .  S
Fe1          O14   2.071       .  S
Fe1           O6   2.050       .  S
Fe1          O12   1.946       .  S
Fe2           O5   2.049       .  S
Fe2           O9   2.085       .  S
Fe2          O13   2.062       .  S
Fe2          O18   2.068       .  S
Fe2          O12   1.959       .  S
Fe3          O21   2.102       .  S
Fe3           O8   2.070       .  S
Fe3          O15   2.074       .  S
Fe3           O4   2.098       .  S
Fe3          O12   1.966       .  S
O4           C11   1.277       .  A
O5           C19   1.273       .  A
O6           C11   1.269       .  A
O7           C10   1.267       .  A
O8           C20   1.267       .  A
O9           C22   1.269       .  A
C10          O15   1.268       .  A
C10        C3921   1.478       .  S
C11        C3901   1.488       .  S
O13          C16   1.271       .  A
O14          C16   1.273       .  A
C16        C3888   1.466       .  S
O17          C22   1.265       .  A
O18          C20   1.267       .  A
C19          O21   1.281       .  A
C19        C3821   1.480       .  S
C20        C3848   1.486       .  S
C22        C3868   1.484       .  S
Fe23         O39   2.051       .  S
Fe23         O29   2.057       .  S
Fe23         O36   2.069       .  S
Fe23         O28   2.042       .  S
Fe23         O34   1.950       .  S
Fe24         O27   2.043       .  S
Fe24         O31   2.091       .  S
Fe24         O35   2.066       .  S
Fe24         O40   2.071       .  S
Fe24         O34   1.954       .  S
Fe25         O43   2.111       .  S
Fe25         O30   2.092       .  S
Fe25         O37   2.084       .  S
Fe25         O26   2.121       .  S
Fe25         O34   1.964       .  S
O26          C33   1.284       .  A
O27          C41   1.269       .  A
O28          C33   1.271       .  A
O29          C32   1.263       .  A
O30          C42   1.274       .  A
O31          C44   1.274       .  A
C32          O37   1.268       .  A
C32        C3761   1.474       .  S
C33        C3781   1.489       .  S
O35          C38   1.267       .  A
O36          C38   1.268       .  A
C38        C3861   1.475       .  S
O39          C44   1.268       .  A
O40          C42   1.270       .  A
C41          O43   1.279       .  A
C41        C3741   1.494       .  S
C42        C3728   1.504       .  S
C44        C3801   1.476       .  S
Fe45         O61   2.048       .  S
Fe45         O51   2.039       .  S
Fe45         O58   2.050       .  S
Fe45         O50   2.046       .  S
Fe45         O56   1.961       .  S
Fe46         O49   2.064       .  S
Fe46         O53   2.072       .  S
Fe46         O57   2.082       .  S
Fe46         O62   2.052       .  S
Fe46         O56   1.976       .  S
Fe47         O65   2.092       .  S
Fe47         O52   2.084       .  S
Fe47         O59   2.095       .  S
Fe47         O48   2.091       .  S
Fe47         O56   1.988       .  S
O48          C55   1.275       .  A
O49          C63   1.273       .  A
O50          C55   1.268       .  A
O51          C54   1.263       .  A
O52          C64   1.271       .  A
O53          C66   1.268       .  A
C54          O59   1.271       .  A
C54        C3708   1.485       .  S
C55        C3681   1.482       .  S
O57          C60   1.271       .  A
O58          C60   1.266       .  A
C60        C3808   1.492       .  S
O61          C66   1.265       .  A
O62          C64   1.265       .  A
C63          O65   1.277       .  A
C63        C3641   1.490       .  S
C64        C3668   1.488       .  S
C66        C3881   1.478       .  S
Fe67         O83   2.049       .  S
Fe67         O73   2.047       .  S
Fe67         O80   2.068       .  S
Fe67         O72   2.051       .  S
Fe67         O78   1.949       .  S
Fe68         O71   2.055       .  S
Fe68         O75   2.072       .  S
Fe68         O79   2.076       .  S
Fe68         O84   2.053       .  S
Fe68         O78   1.965       .  S
Fe69         O87   2.100       .  S
Fe69         O74   2.071       .  S
Fe69         O81   2.080       .  S
Fe69         O70   2.102       .  S
Fe69         O78   1.979       .  S
O70          C77   1.278       .  A
O71          C85   1.273       .  A
O72          C77   1.270       .  A
O73          C76   1.264       .  A
O74          C86   1.267       .  A
O75          C88   1.266       .  A
C76          O81   1.268       .  A
C76        C3928   1.476       .  S
C77        C3788   1.488       .  S
O79          C82   1.272       .  A
O80          C82   1.271       .  A
C82        C3601   1.487       .  S
O83          C88   1.264       .  A
O84          C86   1.265       .  A
C85          O87   1.278       .  A
C85        C3561   1.478       .  S
C86        C3581   1.478       .  S
C88        C3621   1.467       .  S
Fe89        O105   2.053       .  S
Fe89         O95   2.047       .  S
Fe89        O102   2.053       .  S
Fe89         O94   2.050       .  S
Fe89        O100   1.965       .  S
Fe90         O93   2.049       .  S
Fe90         O97   2.082       .  S
Fe90        O101   2.068       .  S
Fe90        O106   2.056       .  S
Fe90        O100   1.979       .  S
Fe91        O109   2.080       .  S
Fe91         O96   2.088       .  S
Fe91        O103   2.090       .  S
Fe91         O92   2.091       .  S
Fe91        O100   1.995       .  S
O92          C99   1.274       .  A
O93         C107   1.269       .  A
O94          C99   1.268       .  A
O95          C98   1.265       .  A
O96         C108   1.271       .  A
O97         C110   1.270       .  A
C98         O103   1.271       .  A
C98        C3701   1.486       .  S
C99        C3908   1.479       .  S
O101        C104   1.267       .  A
O102        C104   1.268       .  A
C104       C3628   1.484       .  S
O105        C110   1.267       .  A
O106        C108   1.267       .  A
C107        O109   1.274       .  A
C107       C3528   1.482       .  S
C108       C3501   1.494       .  S
C110       C3541   1.487       .  S
Fe111       O127   2.054       .  S
Fe111       O117   2.068       .  S
Fe111       O124   2.070       .  S
Fe111       O116   2.049       .  S
Fe111       O122   1.946       .  S
Fe112       O115   2.053       .  S
Fe112       O119   2.094       .  S
Fe112       O123   2.075       .  S
Fe112       O128   2.080       .  S
Fe112       O122   1.956       .  S
Fe113       O131   2.096       .  S
Fe113       O118   2.074       .  S
Fe113       O125   2.081       .  S
Fe113       O114   2.099       .  S
Fe113       O122   1.962       .  S
O114        C121   1.277       .  A
O115        C129   1.269       .  A
O116        C121   1.270       .  A
O117        C120   1.269       .  A
O118        C130   1.272       .  A
O119        C132   1.275       .  A
C120        O125   1.271       .  A
C120       C3768   1.485       .  S
C121       C3688   1.485       .  S
O123        C126   1.268       .  A
O124        C126   1.268       .  A
C126       C3548   1.474       .  S
O127        C132   1.270       .  A
O128        C130   1.273       .  A
C129        O131   1.275       .  A
C129       C3461   1.484       .  S
C130       C3481   1.483       .  S
C132       C3608   1.488       .  S
Fe133       O149   2.046       .  S
Fe133       O139   2.063       .  S
Fe133       O146   2.071       .  S
Fe133       O138   2.041       .  S
Fe133       O144   1.941       .  S
Fe134       O137   2.048       .  S
Fe134       O141   2.088       .  S
Fe134       O145   2.065       .  S
Fe134       O150   2.072       .  S
Fe134       O144   1.946       .  S
Fe135       O153   2.096       .  S
Fe135       O140   2.076       .  S
Fe135       O147   2.081       .  S
Fe135       O136   2.107       .  S
Fe135       O144   1.954       .  S
O136        C143   1.279       .  A
O137        C151   1.269       .  A
O138        C143   1.269       .  A
O139        C142   1.266       .  A
O140        C152   1.271       .  A
O141        C154   1.274       .  A
C142        O147   1.269       .  A
C142       C3408   1.472       .  S
C143       C3388   1.476       .  S
O145        C148   1.267       .  A
O146        C148   1.268       .  A
C148       C3421   1.474       .  S
O149        C154   1.268       .  A
O150        C152   1.271       .  A
C151        O153   1.277       .  A
C151       C3361   1.481       .  S
C152       C3648   1.488       .  S
C154       C3441   1.478       .  S
Fe155       O171   2.048       .  S
Fe155       O161   2.039       .  S
Fe155       O168   2.047       .  S
Fe155       O160   2.052       .  S
Fe155       O166   1.963       .  S
Fe156       O159   2.051       .  S
Fe156       O163   2.080       .  S
Fe156       O167   2.066       .  S
Fe156       O172   2.054       .  S
Fe156       O166   1.980       .  S
Fe157       O175   2.085       .  S
Fe157       O162   2.090       .  S
Fe157       O169   2.092       .  S
Fe157       O158   2.097       .  S
Fe157       O166   1.992       .  S
O158        C165   1.275       .  A
O159        C173   1.270       .  A
O160        C165   1.267       .  A
O161        C164   1.263       .  A
O162        C174   1.272       .  A
O163        C176   1.268       .  A
C164        O169   1.271       .  A
C164       C3328   1.477       .  S
C165       C3348   1.484       .  S
O167        C170   1.270       .  A
O168        C170   1.266       .  A
C170       C3448   1.483       .  S
O171        C176   1.264       .  A
O172        C174   1.266       .  A
C173        O175   1.275       .  A
C173       C3261   1.490       .  S
C174       C3281   1.494       .  S
C176       C3308   1.478       .  S
Fe177       O193   2.046       .  S
Fe177       O183   2.053       .  S
Fe177       O190   2.066       .  S
Fe177       O182   2.041       .  S
Fe177       O188   1.951       .  S
Fe178       O181   2.056       .  S
Fe178       O185   2.085       .  S
Fe178       O189   2.072       .  S
Fe178       O194   2.062       .  S
Fe178       O188   1.964       .  S
Fe179       O197   2.100       .  S
Fe179       O184   2.071       .  S
Fe179       O191   2.077       .  S
Fe179       O180   2.101       .  S
Fe179       O188   1.978       .  S
O180        C187   1.276       .  A
O181        C195   1.272       .  A
O182        C187   1.266       .  A
O183        C186   1.267       .  A
O184        C196   1.268       .  A
O185        C198   1.270       .  A
C186        O191   1.269       .  A
C186       C3248   1.477       .  S
C187       C3221   1.480       .  S
O189        C192   1.271       .  A
O190        C192   1.270       .  A
C192       C3301   1.492       .  S
O193        C198   1.264       .  A
O194        C196   1.268       .  A
C195        O197   1.278       .  A
C195       C3841   1.485       .  S
C196       C3201   1.484       .  S
C198       C3428   1.487       .  S
Fe199       O215   2.051       .  S
Fe199       O205   2.046       .  S
Fe199       O212   2.058       .  S
Fe199       O204   2.048       .  S
Fe199       O210   1.951       .  S
Fe200       O203   2.051       .  S
Fe200       O207   2.072       .  S
Fe200       O211   2.076       .  S
Fe200       O216   2.049       .  S
Fe200       O210   1.965       .  S
Fe201       O219   2.092       .  S
Fe201       O206   2.070       .  S
Fe201       O213   2.079       .  S
Fe201       O202   2.100       .  S
Fe201       O210   1.975       .  S
O202        C209   1.279       .  A
O203        C217   1.272       .  A
O204        C209   1.270       .  A
O205        C208   1.263       .  A
O206        C218   1.268       .  A
O207        C220   1.268       .  A
C208        O213   1.268       .  A
C208       C3321   1.486       .  S
C209       C3228   1.488       .  S
O211        C214   1.270       .  A
O212        C214   1.268       .  A
C214       C3161   1.479       .  S
O215        C220   1.267       .  A
O216        C218   1.265       .  A
C217        O219   1.278       .  A
C217       C3588   1.482       .  S
C218       C3148   1.483       .  S
C220       C3188   1.479       .  S
Fe221       O237   2.056       .  S
Fe221       O227   2.043       .  S
Fe221       O234   2.060       .  S
Fe221       O226   2.049       .  S
Fe221       O232   1.956       .  S
Fe222       O225   2.056       .  S
Fe222       O229   2.075       .  S
Fe222       O233   2.074       .  S
Fe222       O238   2.061       .  S
Fe222       O232   1.965       .  S
Fe223       O241   2.080       .  S
Fe223       O228   2.074       .  S
Fe223       O235   2.081       .  S
Fe223       O224   2.090       .  S
Fe223       O232   1.984       .  S
O224        C231   1.274       .  A
O225        C239   1.273       .  A
O226        C231   1.269       .  A
O227        C230   1.264       .  A
O228        C240   1.268       .  A
O229        C242   1.267       .  A
C230        O235   1.269       .  A
C230       C3241   1.477       .  S
C231       C3381   1.486       .  S
O233        C236   1.273       .  A
O234        C236   1.271       .  A
C236       C3121   1.483       .  S
O237        C242   1.264       .  A
O238        C240   1.267       .  A
C239        O241   1.275       .  A
C239       C3081   1.473       .  S
C240       C3108   1.492       .  S
C242       C3168   1.483       .  S
Fe243       O259   2.042       .  S
Fe243       O249   2.067       .  S
Fe243       O256   2.067       .  S
Fe243       O248   2.044       .  S
Fe243       O254   1.939       .  S
Fe244       O247   2.043       .  S
Fe244       O251   2.098       .  S
Fe244       O255   2.061       .  S
Fe244       O260   2.083       .  S
Fe244       O254   1.952       .  S
Fe245       O263   2.106       .  S
Fe245       O250   2.068       .  S
Fe245       O257   2.076       .  S
Fe245       O246   2.117       .  S
Fe245       O254   1.953       .  S
O246        C253   1.281       .  A
O247        C261   1.268       .  A
O248        C253   1.269       .  A
O249        C252   1.268       .  A
O250        C262   1.271       .  A
O251        C264   1.275       .  A
C252        O257   1.269       .  A
C252       C3401   1.485       .  S
C253       C3341   1.492       .  S
O255        C258   1.266       .  A
O256        C258   1.268       .  A
C258       C3181   1.466       .  S
O259        C264   1.267       .  A
O260        C262   1.273       .  A
C261        O263   1.278       .  A
C261       C3061   1.481       .  S
C262       C3468   1.483       .  S
C264       C3128   1.482       .  S
Fe265       O281   2.051       .  S
Fe265       O271   2.043       .  S
Fe265       O278   2.051       .  S
Fe265       O270   2.051       .  S
Fe265       O276   1.967       .  S
Fe266       O269   2.068       .  S
Fe266       O273   2.080       .  S
Fe266       O277   2.080       .  S
Fe266       O282   2.056       .  S
Fe266       O276   1.981       .  S
Fe267       O285   2.085       .  S
Fe267       O272   2.085       .  S
Fe267       O279   2.082       .  S
Fe267       O268   2.099       .  S
Fe267       O276   1.994       .  S
O268        C275   1.275       .  A
O269        C283   1.272       .  A
O270        C275   1.268       .  A
O271        C274   1.264       .  A
O272        C284   1.271       .  A
O273        C286   1.270       .  A
C274        O279   1.269       .  A
C274       C3048   1.482       .  S
C275       C3021   1.484       .  S
O277        C280   1.270       .  A
O278        C280   1.266       .  A
C280       C2988   1.494       .  S
O281        C286   1.266       .  A
O282        C284   1.267       .  A
C283        O285   1.274       .  A
C283       C3288   1.489       .  S
C284       C2961   1.485       .  S
C286       C3001   1.483       .  S
Fe287       O303   2.057       .  S
Fe287       O293   2.053       .  S
Fe287       O300   2.062       .  S
Fe287       O292   2.047       .  S
Fe287       O298   1.958       .  S
Fe288       O291   2.051       .  S
Fe288       O295   2.078       .  S
Fe288       O299   2.070       .  S
Fe288       O304   2.062       .  S
Fe288       O298   1.975       .  S
Fe289       O307   2.094       .  S
Fe289       O294   2.063       .  S
Fe289       O301   2.079       .  S
Fe289       O290   2.102       .  S
Fe289       O298   1.988       .  S
O290        C297   1.275       .  A
O291        C305   1.267       .  A
O292        C297   1.267       .  A
O293        C296   1.267       .  A
O294        C306   1.269       .  A
O295        C308   1.269       .  A
C296        O301   1.270       .  A
C296       C2921   1.483       .  S
C297       C2901   1.487       .  S
O299        C302   1.267       .  A
O300        C302   1.267       .  A
C302       C2941   1.469       .  S
O303        C308   1.268       .  A
O304        C306   1.271       .  A
C305        O307   1.274       .  A
C305       C2861   1.479       .  S
C306       C2881   1.478       .  S
C308       C2981   1.475       .  S
Fe309       O325   2.048       .  S
Fe309       O315   2.067       .  S
Fe309       O322   2.059       .  S
Fe309       O314   2.043       .  S
Fe309       O320   1.942       .  S
Fe310       O313   2.048       .  S
Fe310       O317   2.094       .  S
Fe310       O321   2.073       .  S
Fe310       O326   2.076       .  S
Fe310       O320   1.952       .  S
Fe311       O329   2.091       .  S
Fe311       O316   2.070       .  S
Fe311       O323   2.076       .  S
Fe311       O312   2.103       .  S
Fe311       O320   1.961       .  S
O312        C319   1.277       .  A
O313        C327   1.268       .  A
O314        C319   1.268       .  A
O315        C318   1.268       .  A
O316        C328   1.272       .  A
O317        C330   1.276       .  A
C318        O323   1.269       .  A
C318       C2828   1.482       .  S
C319       C2841   1.475       .  S
O321        C324   1.267       .  A
O322        C324   1.266       .  A
C324       C3008   1.481       .  S
O325        C330   1.270       .  A
O326        C328   1.273       .  A
C327        O329   1.274       .  A
C327       C2801   1.484       .  S
C328       C3368   1.483       .  S
C330       C2948   1.492       .  S
Fe331       O347   2.052       .  S
Fe331       O337   2.048       .  S
Fe331       O344   2.063       .  S
Fe331       O336   2.055       .  S
Fe331       O342   1.951       .  S
Fe332       O335   2.043       .  S
Fe332       O339   2.087       .  S
Fe332       O343   2.062       .  S
Fe332       O348   2.062       .  S
Fe332       O342   1.961       .  S
Fe333       O351   2.095       .  S
Fe333       O338   2.079       .  S
Fe333       O345   2.084       .  S
Fe333       O334   2.098       .  S
Fe333       O342   1.972       .  S
O334        C341   1.278       .  A
O335        C349   1.271       .  A
O336        C341   1.270       .  A
O337        C340   1.264       .  A
O338        C350   1.269       .  A
O339        C352   1.270       .  A
C340        O345   1.269       .  A
C340       C2928   1.477       .  S
C341       C3028   1.485       .  S
O343        C346   1.268       .  A
O344        C346   1.269       .  A
C346       C2781   1.471       .  S
O347        C352   1.265       .  A
O348        C350   1.267       .  A
C349        O351   1.278       .  A
C349       C3141   1.483       .  S
C350       C2741   1.485       .  S
C352       C2768   1.478       .  S
Fe353       O369   2.039       .  S
Fe353       O359   2.043       .  S
Fe353       O366   2.063       .  S
Fe353       O358   2.036       .  S
Fe353       O364   1.945       .  S
Fe354       O357   2.051       .  S
Fe354       O361   2.085       .  S
Fe354       O365   2.070       .  S
Fe354       O370   2.062       .  S
Fe354       O364   1.966       .  S
Fe355       O373   2.100       .  S
Fe355       O360   2.073       .  S
Fe355       O367   2.078       .  S
Fe355       O356   2.101       .  S
Fe355       O364   1.968       .  S
O356        C363   1.278       .  A
O357        C371   1.274       .  A
O358        C363   1.267       .  A
O359        C362   1.264       .  A
O360        C372   1.267       .  A
O361        C374   1.269       .  A
C362        O367   1.268       .  A
C362       C3041   1.476       .  S
C363       C2848   1.492       .  S
O365        C368   1.271       .  A
O366        C368   1.271       .  A
C368       C2721   1.483       .  S
O369        C374   1.261       .  A
O370        C372   1.265       .  A
C371        O373   1.281       .  A
C371       C2681   1.491       .  S
C372       C2708   1.484       .  S
C374       C2788   1.481       .  S
Fe375       O391   2.056       .  S
Fe375       O381   2.052       .  S
Fe375       O388   2.061       .  S
Fe375       O380   2.045       .  S
Fe375       O386   1.945       .  S
Fe376       O379   2.061       .  S
Fe376       O383   2.081       .  S
Fe376       O387   2.074       .  S
Fe376       O392   2.060       .  S
Fe376       O386   1.954       .  S
Fe377       O395   2.101       .  S
Fe377       O382   2.066       .  S
Fe377       O389   2.077       .  S
Fe377       O378   2.112       .  S
Fe377       O386   1.962       .  S
O378        C385   1.280       .  A
O379        C393   1.273       .  A
O380        C385   1.269       .  A
O381        C384   1.265       .  A
O382        C394   1.269       .  A
O383        C396   1.272       .  A
C384        O389   1.268       .  A
C384       C2821   1.469       .  S
C385       C2908   1.489       .  S
O387        C390   1.269       .  A
O388        C390   1.267       .  A
C390       C2761   1.488       .  S
O391        C396   1.268       .  A
O392        C394   1.268       .  A
C393        O395   1.278       .  A
C393       C2668   1.491       .  S
C394       C3088   1.487       .  S
C396       C2728   1.477       .  S
Fe397       O413   2.051       .  S
Fe397       O403   2.065       .  S
Fe397       O410   2.061       .  S
Fe397       O402   2.042       .  S
Fe397       O408   1.952       .  S
Fe398       O401   2.059       .  S
Fe398       O405   2.085       .  S
Fe398       O409   2.074       .  S
Fe398       O414   2.075       .  S
Fe398       O408   1.959       .  S
Fe399       O417   2.085       .  S
Fe399       O404   2.069       .  S
Fe399       O411   2.074       .  S
Fe399       O400   2.100       .  S
Fe399       O408   1.969       .  S
O400        C407   1.275       .  A
O401        C415   1.269       .  A
O402        C407   1.267       .  A
O403        C406   1.266       .  A
O404        C416   1.272       .  A
O405        C418   1.275       .  A
C406        O411   1.268       .  A
C406       C2621   1.471       .  S
C407       C2588   1.471       .  S
O409        C412   1.267       .  A
O410        C412   1.265       .  A
C412       C2601   1.470       .  S
O413        C418   1.270       .  A
O414        C416   1.273       .  A
C415        O417   1.272       .  A
C415       C3661   1.489       .  S
C416       C2808   1.495       .  S
C418       C2641   1.481       .  S
Fe419       O435   2.049       .  S
Fe419       O425   2.068       .  S
Fe419       O432   2.069       .  S
Fe419       O424   2.048       .  S
Fe419       O430   1.941       .  S
Fe420       O423   2.035       .  S
Fe420       O427   2.093       .  S
Fe420       O431   2.051       .  S
Fe420       O436   2.073       .  S
Fe420       O430   1.953       .  S
Fe421       O439   2.095       .  S
Fe421       O426   2.066       .  S
Fe421       O433   2.070       .  S
Fe421       O422   2.105       .  S
Fe421       O430   1.962       .  S
O422        C429   1.277       .  A
O423        C437   1.267       .  A
O424        C429   1.267       .  A
O425        C428   1.271       .  A
O426        C438   1.270       .  A
O427        C440   1.274       .  A
C428        O433   1.269       .  A
C428       C2521   1.480       .  S
C429       C2541   1.486       .  S
O431        C434   1.264       .  A
O432        C434   1.269       .  A
C434       C2561   1.458       .  S
O435        C440   1.267       .  A
O436        C438   1.271       .  A
C437        O439   1.274       .  A
C437       C2888   1.486       .  S
C438       C2501   1.489       .  S
C440       C2608   1.492       .  S
Fe441       O457   2.043       .  S
Fe441       O447   2.037       .  S
Fe441       O454   2.048       .  S
Fe441       O446   2.043       .  S
Fe441       O452   1.962       .  S
Fe442       O445   2.058       .  S
Fe442       O449   2.068       .  S
Fe442       O453   2.080       .  S
Fe442       O458   2.058       .  S
Fe442       O452   1.980       .  S
Fe443       O461   2.088       .  S
Fe443       O448   2.078       .  S
Fe443       O455   2.090       .  S
Fe443       O444   2.094       .  S
Fe443       O452   1.992       .  S
O444        C451   1.273       .  A
O445        C459   1.271       .  A
O446        C451   1.266       .  A
O447        C450   1.264       .  A
O448        C460   1.269       .  A
O449        C462   1.266       .  A
C450        O455   1.271       .  A
C450       C2481   1.477       .  S
C451       C2461   1.489       .  S
O453        C456   1.273       .  A
O454        C456   1.268       .  A
C456       C2648   1.489       .  S
O457        C462   1.263       .  A
O458        C460   1.267       .  A
C459        O461   1.276       .  A
C459       C2441   1.487       .  S
C460       C3748   1.485       .  S
C462       C2568   1.486       .  S
Fe463       O479   2.053       .  S
Fe463       O469   2.038       .  S
Fe463       O476   2.045       .  S
Fe463       O468   2.063       .  S
Fe463       O474   1.949       .  S
Fe464       O467   2.087       .  S
Fe464       O471   2.070       .  S
Fe464       O475   2.093       .  S
Fe464       O480   2.050       .  S
Fe464       O474   1.965       .  S
Fe465       O483   2.068       .  S
Fe465       O470   2.090       .  S
Fe465       O477   2.101       .  S
Fe465       O466   2.076       .  S
Fe465       O474   1.974       .  S
O466        C473   1.272       .  A
O467        C481   1.278       .  A
O468        C473   1.270       .  A
O469        C472   1.263       .  A
O470        C482   1.271       .  A
O471        C484   1.267       .  A
C472        O477   1.272       .  A
C472       C2528   1.473       .  S
C473       C2581   1.488       .  S
O475        C478   1.276       .  A
O476        C478   1.268       .  A
C478       C2401   1.491       .  S
O479        C484   1.264       .  A
O480        C482   1.265       .  A
C481        O483   1.274       .  A
C481       C3508   1.484       .  S
C482       C2381   1.489       .  S
C484       C2428   1.473       .  S
Fe485       O501   2.050       .  S
Fe485       O491   2.044       .  S
Fe485       O498   2.059       .  S
Fe485       O490   2.049       .  S
Fe485       O496   1.958       .  S
Fe486       O489   2.047       .  S
Fe486       O493   2.083       .  S
Fe486       O497   2.070       .  S
Fe486       O502   2.062       .  S
Fe486       O496   1.970       .  S
Fe487       O505   2.101       .  S
Fe487       O492   2.080       .  S
Fe487       O499   2.079       .  S
Fe487       O488   2.111       .  S
Fe487       O496   1.982       .  S
O488        C495   1.280       .  A
O489        C503   1.269       .  A
O490        C495   1.270       .  A
O491        C494   1.264       .  A
O492        C504   1.271       .  A
O493        C506   1.271       .  A
C494        O499   1.268       .  A
C494       C2488   1.480       .  S
C495       C2548   1.491       .  S
O497        C500   1.269       .  A
O498        C500   1.268       .  A
C500       C2421   1.485       .  S
O501        C506   1.266       .  A
O502        C504   1.269       .  A
C503        O505   1.278       .  A
C503       C2748   1.498       .  S
C504       C3568   1.497       .  S
C506       C2361   1.482       .  S
Fe507       O523   2.047       .  S
Fe507       O513   2.059       .  S
Fe507       O520   2.063       .  S
Fe507       O512   2.042       .  S
Fe507       O518   1.934       .  S
Fe508       O511   2.040       .  S
Fe508       O515   2.091       .  S
Fe508       O519   2.066       .  S
Fe508       O524   2.067       .  S
Fe508       O518   1.943       .  S
Fe509       O527   2.106       .  S
Fe509       O514   2.074       .  S
Fe509       O521   2.083       .  S
Fe509       O510   2.117       .  S
Fe509       O518   1.950       .  S
O510        C517   1.280       .  A
O511        C525   1.267       .  A
O512        C517   1.269       .  A
O513        C516   1.266       .  A
O514        C526   1.273       .  A
O515        C528   1.276       .  A
C516        O521   1.271       .  A
C516       C2628   1.485       .  S
C517       C2468   1.478       .  S
O519        C522   1.265       .  A
O520        C522   1.266       .  A
C522       C2368   1.468       .  S
O523        C528   1.270       .  A
O524        C526   1.271       .  A
C525        O527   1.278       .  A
C525       C2341   1.490       .  S
C526       C2688   1.475       .  S
C528       C2408   1.475       .  S
Fe529       O545   2.043       .  S
Fe529       O535   2.041       .  S
Fe529       O542   2.056       .  S
Fe529       O534   2.039       .  S
Fe529       O540   1.964       .  S
Fe530       O533   2.058       .  S
Fe530       O537   2.069       .  S
Fe530       O541   2.088       .  S
Fe530       O546   2.061       .  S
Fe530       O540   1.977       .  S
Fe531       O549   2.090       .  S
Fe531       O536   2.082       .  S
Fe531       O543   2.095       .  S
Fe531       O532   2.095       .  S
Fe531       O540   1.985       .  S
O532        C539   1.270       .  A
O533        C547   1.267       .  A
O534        C539   1.261       .  A
O535        C538   1.268       .  A
O536        C548   1.275       .  A
O537        C550   1.267       .  A
C538        O543   1.276       .  A
C538       C2301   1.481       .  S
C539       C2321   1.477       .  S
O541        C544   1.273       .  A
O542        C544   1.268       .  A
C544       C2261   1.483       .  S
O545        C550   1.263       .  A
O546        C548   1.273       .  A
C547        O549   1.271       .  A
C547       C2248   1.494       .  S
C548       C3828   1.477       .  S
C550       C2281   1.487       .  S
Fe551       O567   2.045       .  S
Fe551       O557   2.046       .  S
Fe551       O564   2.057       .  S
Fe551       O556   2.050       .  S
Fe551       O562   1.950       .  S
Fe552       O555   2.073       .  S
Fe552       O559   2.071       .  S
Fe552       O563   2.095       .  S
Fe552       O568   2.054       .  S
Fe552       O562   1.966       .  S
Fe553       O571   2.079       .  S
Fe553       O558   2.079       .  S
Fe553       O565   2.094       .  S
Fe553       O554   2.090       .  S
Fe553       O562   1.973       .  S
O554        C561   1.270       .  A
O555        C569   1.272       .  A
O556        C561   1.264       .  A
O557        C560   1.269       .  A
O558        C570   1.273       .  A
O559        C572   1.266       .  A
C560        O565   1.276       .  A
C560       C2308   1.478       .  S
C561       C2201   1.483       .  S
O563        C566   1.276       .  A
O564        C566   1.270       .  A
C566       C2228   1.484       .  S
O567        C572   1.264       .  A
O568        C570   1.270       .  A
C569        O571   1.272       .  A
C569       C2161   1.493       .  S
C570       C3521   1.482       .  S
C572       C2181   1.482       .  S
Fe573       O589   2.056       .  S
Fe573       O579   2.038       .  S
Fe573       O586   2.049       .  S
Fe573       O578   2.048       .  S
Fe573       O584   1.950       .  S
Fe574       O577   2.057       .  S
Fe574       O581   2.062       .  S
Fe574       O585   2.086       .  S
Fe574       O590   2.046       .  S
Fe574       O584   1.957       .  S
Fe575       O593   2.087       .  S
Fe575       O580   2.094       .  S
Fe575       O587   2.109       .  S
Fe575       O576   2.095       .  S
Fe575       O584   1.966       .  S
O576        C583   1.270       .  A
O577        C591   1.268       .  A
O578        C583   1.262       .  A
O579        C582   1.270       .  A
O580        C592   1.276       .  A
O581        C594   1.264       .  A
C582        O587   1.280       .  A
C582       C2148   1.482       .  S
C583       C2208   1.480       .  S
O585        C588   1.274       .  A
O586        C588   1.269       .  A
C588       C2288   1.477       .  S
O589        C594   1.264       .  A
O590        C592   1.269       .  A
C591        O593   1.273       .  A
C591       C2101   1.491       .  S
C592       C2081   1.478       .  S
C594       C2128   1.473       .  S
Fe595       O611   2.058       .  S
Fe595       O601   2.034       .  S
Fe595       O608   2.049       .  S
Fe595       O600   2.044       .  S
Fe595       O606   1.962       .  S
Fe596       O599   2.057       .  S
Fe596       O603   2.079       .  S
Fe596       O607   2.077       .  S
Fe596       O612   2.064       .  S
Fe596       O606   1.969       .  S
Fe597       O615   2.094       .  S
Fe597       O602   2.078       .  S
Fe597       O609   2.096       .  S
Fe597       O598   2.090       .  S
Fe597       O606   1.982       .  S
O598        C605   1.268       .  A
O599        C613   1.266       .  A
O600        C605   1.261       .  A
O601        C604   1.268       .  A
O602        C614   1.275       .  A
O603        C616   1.270       .  A
C604        O609   1.278       .  A
C604       C2061   1.474       .  S
C605       C2041   1.477       .  S
O607        C610   1.270       .  A
O608        C610   1.266       .  A
C610       C2121   1.479       .  S
O611        C616   1.267       .  A
O612        C614   1.274       .  A
C613        O615   1.271       .  A
C613       C3721   1.496       .  S
C614       C2028   1.478       .  S
C616       C2268   1.493       .  S
Fe617       O633   2.044       .  S
Fe617       O623   2.040       .  S
Fe617       O630   2.052       .  S
Fe617       O622   2.039       .  S
Fe617       O628   1.963       .  S
Fe618       O621   2.044       .  S
Fe618       O625   2.076       .  S
Fe618       O629   2.068       .  S
Fe618       O634   2.057       .  S
Fe618       O628   1.974       .  S
Fe619       O637   2.097       .  S
Fe619       O624   2.081       .  S
Fe619       O631   2.092       .  S
Fe619       O620   2.094       .  S
Fe619       O628   1.986       .  S
O620        C627   1.270       .  A
O621        C635   1.265       .  A
O622        C627   1.261       .  A
O623        C626   1.267       .  A
O624        C636   1.273       .  A
O625        C638   1.268       .  A
C626        O631   1.275       .  A
C626       C2068   1.470       .  S
C627       C2328   1.474       .  S
O629        C632   1.269       .  A
O630        C632   1.268       .  A
C632       C2188   1.482       .  S
O633        C638   1.263       .  A
O634        C636   1.270       .  A
C635        O637   1.274       .  A
C635       C1981   1.492       .  S
C636       C1961   1.482       .  S
C638       C2001   1.490       .  S
Fe639       O655   2.067       .  S
Fe639       O645   2.040       .  S
Fe639       O652   2.055       .  S
Fe639       O644   2.056       .  S
Fe639       O650   1.955       .  S
Fe640       O643   2.062       .  S
Fe640       O647   2.076       .  S
Fe640       O651   2.079       .  S
Fe640       O656   2.058       .  S
Fe640       O650   1.955       .  S
Fe641       O659   2.081       .  S
Fe641       O646   2.093       .  S
Fe641       O653   2.107       .  S
Fe641       O642   2.081       .  S
Fe641       O650   1.967       .  S
O642        C649   1.268       .  A
O643        C657   1.268       .  A
O644        C649   1.264       .  A
O645        C648   1.269       .  A
O646        C658   1.277       .  A
O647        C660   1.270       .  A
C648        O653   1.280       .  A
C648       C2141   1.480       .  S
C649       C2048   1.474       .  S
O651        C654   1.272       .  A
O652        C654   1.268       .  A
C654       C2008   1.484       .  S
O655        C660   1.268       .  A
O656        C658   1.272       .  A
C657        O659   1.271       .  A
C657       C3488   1.496       .  S
C658       C1941   1.490       .  S
C660       C2221   1.485       .  S
Fe661       O677   2.054       .  S
Fe661       O667   2.034       .  S
Fe661       O674   2.042       .  S
Fe661       O666   2.059       .  S
Fe661       O672   1.963       .  S
Fe662       O665   2.077       .  S
Fe662       O669   2.067       .  S
Fe662       O673   2.085       .  S
Fe662       O678   2.052       .  S
Fe662       O672   1.975       .  S
Fe663       O681   2.085       .  S
Fe663       O668   2.090       .  S
Fe663       O675   2.110       .  S
Fe663       O664   2.087       .  S
Fe663       O672   1.981       .  S
O664        C671   1.273       .  A
O665        C679   1.275       .  A
O666        C671   1.268       .  A
O667        C670   1.263       .  A
O668        C680   1.272       .  A
O669        C682   1.267       .  A
C670        O675   1.275       .  A
C670       C1921   1.486       .  S
C671       C1901   1.483       .  S
O673        C676   1.271       .  A
O674        C676   1.267       .  A
C676       C1888   1.490       .  S
O677        C682   1.266       .  A
O678        C680   1.266       .  A
C679        O681   1.276       .  A
C679       C1841   1.501       .  S
C680       C2108   1.494       .  S
C682       C1861   1.478       .  S
Fe683       O699   2.048       .  S
Fe683       O689   2.064       .  S
Fe683       O696   2.066       .  S
Fe683       O688   2.042       .  S
Fe683       O694   1.941       .  S
Fe684       O687   2.054       .  S
Fe684       O691   2.091       .  S
Fe684       O695   2.070       .  S
Fe684       O700   2.075       .  S
Fe684       O694   1.951       .  S
Fe685       O703   2.087       .  S
Fe685       O690   2.070       .  S
Fe685       O697   2.082       .  S
Fe685       O686   2.104       .  S
Fe685       O694   1.957       .  S
O686        C693   1.278       .  A
O687        C701   1.270       .  A
O688        C693   1.269       .  A
O689        C692   1.267       .  A
O690        C702   1.271       .  A
O691        C704   1.274       .  A
C692        O697   1.269       .  A
C692       C1801   1.484       .  S
C693       C1828   1.482       .  S
O695        C698   1.268       .  A
O696        C698   1.268       .  A
C698       C1868   1.471       .  S
O699        C704   1.268       .  A
O700        C702   1.272       .  A
C701        O703   1.275       .  A
C701       C2508   1.475       .  S
C702       C1761   1.493       .  S
C704       C1781   1.476       .  S
Fe705       O721   2.050       .  S
Fe705       O711   2.054       .  S
Fe705       O718   2.063       .  S
Fe705       O710   2.031       .  S
Fe705       O716   1.943       .  S
Fe706       O709   2.047       .  S
Fe706       O713   2.081       .  S
Fe706       O717   2.067       .  S
Fe706       O722   2.068       .  S
Fe706       O716   1.953       .  S
Fe707       O725   2.093       .  S
Fe707       O712   2.072       .  S
Fe707       O719   2.080       .  S
Fe707       O708   2.111       .  S
Fe707       O716   1.961       .  S
O708        C715   1.279       .  A
O709        C723   1.270       .  A
O710        C715   1.268       .  A
O711        C714   1.265       .  A
O712        C724   1.270       .  A
O713        C726   1.272       .  A
C714        O719   1.268       .  A
C714       C1741   1.475       .  S
C715       C1728   1.479       .  S
O717        C720   1.269       .  A
O718        C720   1.268       .  A
C720       C1788   1.484       .  S
O721        C726   1.267       .  A
O722        C724   1.269       .  A
C723        O725   1.277       .  A
C723       C2021   1.482       .  S
C724       C2448   1.486       .  S
C726       C1881   1.478       .  S
Fe727       O743   2.064       .  S
Fe727       O733   2.060       .  S
Fe727       O740   2.068       .  S
Fe727       O732   2.049       .  S
Fe727       O738   1.970       .  S
Fe728       O731   2.049       .  S
Fe728       O735   2.064       .  S
Fe728       O739   2.063       .  S
Fe728       O744   2.059       .  S
Fe728       O738   1.969       .  S
Fe729       O747   2.094       .  S
Fe729       O734   2.079       .  S
Fe729       O741   2.079       .  S
Fe729       O730   2.101       .  S
Fe729       O738   1.980       .  S
O730        C737   1.276       .  A
O731        C745   1.267       .  A
O732        C737   1.268       .  A
O733        C736   1.266       .  A
O734        C746   1.272       .  A
O735        C748   1.269       .  A
C736        O741   1.269       .  A
C736       C1748   1.476       .  S
C737       C1908   1.473       .  S
O739        C742   1.267       .  A
O740        C742   1.268       .  A
C742       C1701   1.490       .  S
O743        C748   1.270       .  A
O744        C746   1.268       .  A
C745        O747   1.275       .  A
C745       C1661   1.495       .  S
C746       C2348   1.490       .  S
C748       C1681   1.487       .  S
Fe749       O765   2.050       .  S
Fe749       O755   2.035       .  S
Fe749       O762   2.048       .  S
Fe749       O754   2.048       .  S
Fe749       O760   1.958       .  S
Fe750       O753   2.066       .  S
Fe750       O757   2.079       .  S
Fe750       O761   2.083       .  S
Fe750       O766   2.048       .  S
Fe750       O760   1.974       .  S
Fe751       O769   2.089       .  S
Fe751       O756   2.094       .  S
Fe751       O763   2.102       .  S
Fe751       O752   2.094       .  S
Fe751       O760   1.986       .  S
O752        C759   1.276       .  A
O753        C767   1.275       .  A
O754        C759   1.269       .  A
O755        C758   1.261       .  A
O756        C768   1.272       .  A
O757        C770   1.268       .  A
C758        O763   1.272       .  A
C758       C1928   1.486       .  S
C759       C1821   1.483       .  S
O761        C764   1.272       .  A
O762        C764   1.266       .  A
C764       C1641   1.493       .  S
O765        C770   1.265       .  A
O766        C768   1.264       .  A
C767        O769   1.278       .  A
C767       C2388   1.489       .  S
C768       C2168   1.487       .  S
C770       C1708   1.475       .  S
Fe771       O787   2.055       .  S
Fe771       O777   2.061       .  S
Fe771       O784   2.064       .  S
Fe771       O776   2.044       .  S
Fe771       O782   1.950       .  S
Fe772       O775   2.049       .  S
Fe772       O779   2.087       .  S
Fe772       O783   2.062       .  S
Fe772       O788   2.061       .  S
Fe772       O782   1.955       .  S
Fe773       O791   2.095       .  S
Fe773       O778   2.079       .  S
Fe773       O785   2.082       .  S
Fe773       O774   2.105       .  S
Fe773       O782   1.964       .  S
O774        C781   1.279       .  A
O775        C789   1.270       .  A
O776        C781   1.269       .  A
O777        C780   1.266       .  A
O778        C790   1.270       .  A
O779        C792   1.273       .  A
C780        O785   1.269       .  A
C780       C1808   1.478       .  S
C781       C1721   1.482       .  S
O783        C786   1.265       .  A
O784        C786   1.266       .  A
C786       C1688   1.463       .  S
O787        C792   1.269       .  A
O788        C790   1.269       .  A
C789        O791   1.276       .  A
C789       C1968   1.489       .  S
C790       C1628   1.495       .  S
C792       C1648   1.480       .  S
Fe793       O809   2.041       .  S
Fe793       O799   2.038       .  S
Fe793       O806   2.064       .  S
Fe793       O798   2.037       .  S
Fe793       O804   1.958       .  S
Fe794       O797   2.053       .  S
Fe794       O801   2.083       .  S
Fe794       O805   2.070       .  S
Fe794       O810   2.057       .  S
Fe794       O804   1.975       .  S
Fe795       O813   2.107       .  S
Fe795       O800   2.080       .  S
Fe795       O807   2.087       .  S
Fe795       O796   2.112       .  S
Fe795       O804   1.988       .  S
O796        C803   1.279       .  A
O797        C811   1.272       .  A
O798        C803   1.266       .  A
O799        C802   1.263       .  A
O800        C812   1.269       .  A
O801        C814   1.268       .  A
C802        O807   1.269       .  A
C802       C1561   1.475       .  S
C803       C1541   1.487       .  S
O805        C808   1.271       .  A
O806        C808   1.270       .  A
C808       C1608   1.492       .  S
O809        C814   1.261       .  A
O810        C812   1.266       .  A
C811        O813   1.280       .  A
C811       C3101   1.494       .  S
C812       C1521   1.493       .  S
C814       C1581   1.473       .  S
Fe815       O831   2.052       .  S
Fe815       O821   2.062       .  S
Fe815       O828   2.068       .  S
Fe815       O820   2.045       .  S
Fe815       O826   1.945       .  S
Fe816       O819   2.064       .  S
Fe816       O823   2.093       .  S
Fe816       O827   2.071       .  S
Fe816       O832   2.078       .  S
Fe816       O826   1.952       .  S
Fe817       O835   2.100       .  S
Fe817       O822   2.072       .  S
Fe817       O829   2.085       .  S
Fe817       O818   2.108       .  S
Fe817       O826   1.956       .  S
O818        C825   1.279       .  A
O819        C833   1.271       .  A
O820        C825   1.269       .  A
O821        C824   1.267       .  A
O822        C834   1.271       .  A
O823        C836   1.274       .  A
C824        O829   1.271       .  A
C824       C1481   1.479       .  S
C825       C1468   1.490       .  S
O827        C830   1.268       .  A
O828        C830   1.268       .  A
C830       C1501   1.470       .  S
O831        C836   1.269       .  A
O832        C834   1.272       .  A
C833        O835   1.277       .  A
C833       C1441   1.483       .  S
C834       C1988   1.492       .  S
C836       C1601   1.478       .  S
Fe837       O853   2.067       .  S
Fe837       O843   2.044       .  S
Fe837       O850   2.057       .  S
Fe837       O842   2.061       .  S
Fe837       O848   1.968       .  S
Fe838       O841   2.064       .  S
Fe838       O845   2.061       .  S
Fe838       O849   2.075       .  S
Fe838       O854   2.046       .  S
Fe838       O848   1.970       .  S
Fe839       O857   2.079       .  S
Fe839       O844   2.087       .  S
Fe839       O851   2.094       .  S
Fe839       O840   2.076       .  S
Fe839       O848   1.982       .  S
O840        C847   1.269       .  A
O841        C855   1.270       .  A
O842        C847   1.267       .  A
O843        C846   1.266       .  A
O844        C856   1.272       .  A
O845        C858   1.266       .  A
C846        O851   1.273       .  A
C846       C1428   1.469       .  S
C847       C1401   1.472       .  S
O849        C852   1.271       .  A
O850        C852   1.269       .  A
C852       C1588   1.492       .  S
O853        C858   1.268       .  A
O854        C856   1.266       .  A
C855        O857   1.272       .  A
C855       C1948   1.493       .  S
C856       C3068   1.486       .  S
C858       C1508   1.486       .  S
Fe859       O875   2.062       .  S
Fe859       O865   2.037       .  S
Fe859       O872   2.051       .  S
Fe859       O864   2.055       .  S
Fe859       O870   1.967       .  S
Fe860       O863   2.064       .  S
Fe860       O867   2.052       .  S
Fe860       O871   2.081       .  S
Fe860       O876   2.041       .  S
Fe860       O870   1.975       .  S
Fe861       O879   2.067       .  S
Fe861       O866   2.082       .  S
Fe861       O873   2.098       .  S
Fe861       O862   2.076       .  S
Fe861       O870   1.986       .  S
O862        C869   1.268       .  A
O863        C877   1.270       .  A
O864        C869   1.266       .  A
O865        C868   1.266       .  A
O866        C878   1.271       .  A
O867        C880   1.263       .  A
C868        O873   1.275       .  A
C868       C1568   1.485       .  S
C869       C1408   1.472       .  S
O871        C874   1.272       .  A
O872        C874   1.268       .  A
C874       C1361   1.477       .  S
O875        C880   1.266       .  A
O876        C878   1.266       .  A
C877        O879   1.270       .  A
C877       C2088   1.481       .  S
C878       C1341   1.486       .  S
C880       C1381   1.479       .  S
Fe881       O897   2.040       .  S
Fe881       O887   2.059       .  S
Fe881       O894   2.055       .  S
Fe881       O886   2.027       .  S
Fe881       O892   1.935       .  S
Fe882       O885   2.052       .  S
Fe882       O889   2.097       .  S
Fe882       O893   2.077       .  S
Fe882       O898   2.080       .  S
Fe882       O892   1.949       .  S
Fe883       O901   2.093       .  S
Fe883       O888   2.063       .  S
Fe883       O895   2.075       .  S
Fe883       O884   2.120       .  S
Fe883       O892   1.957       .  S
O884        C891   1.280       .  A
O885        C899   1.269       .  A
O886        C891   1.266       .  A
O887        C890   1.266       .  A
O888        C900   1.271       .  A
O889        C902   1.277       .  A
C890        O895   1.267       .  A
C890       C1421   1.474       .  S
C891       C1461   1.480       .  S
O893        C896   1.269       .  A
O894        C896   1.265       .  A
C896       C1328   1.489       .  S
O897        C902   1.268       .  A
O898        C900   1.274       .  A
C899        O901   1.275       .  A
C899       C1301   1.494       .  S
C900       C3268   1.482       .  S
C902       C1368   1.480       .  S
Fe903       O919   2.049       .  S
Fe903       O909   2.067       .  S
Fe903       O916   2.063       .  S
Fe903       O908   2.046       .  S
Fe903       O914   1.944       .  S
Fe904       O907   2.045       .  S
Fe904       O911   2.102       .  S
Fe904       O915   2.059       .  S
Fe904       O920   2.079       .  S
Fe904       O914   1.951       .  S
Fe905       O923   2.099       .  S
Fe905       O910   2.079       .  S
Fe905       O917   2.079       .  S
Fe905       O906   2.117       .  S
Fe905       O914   1.956       .  S
O906        C913   1.280       .  A
O907        C921   1.268       .  A
O908        C913   1.269       .  A
O909        C912   1.266       .  A
O910        C922   1.273       .  A
O911        C924   1.277       .  A
C912        O917   1.268       .  A
C912       C1488   1.477       .  S
C913       C1548   1.479       .  S
O915        C918   1.264       .  A
O916        C918   1.266       .  A
C918       C1388   1.463       .  S
O919        C924   1.270       .  A
O920        C922   1.273       .  A
C921        O923   1.277       .  A
C921       C3208   1.493       .  S
C922       C2241   1.498       .  S
C924       C1321   1.487       .  S
Fe925       O941   2.047       .  S
Fe925       O931   2.047       .  S
Fe925       O938   2.058       .  S
Fe925       O930   2.038       .  S
Fe925       O936   1.965       .  S
Fe926       O929   2.053       .  S
Fe926       O933   2.081       .  S
Fe926       O937   2.073       .  S
Fe926       O942   2.068       .  S
Fe926       O936   1.982       .  S
Fe927       O945   2.096       .  S
Fe927       O932   2.080       .  S
Fe927       O939   2.097       .  S
Fe927       O928   2.105       .  S
Fe927       O936   1.995       .  S
O928        C935   1.274       .  A
O929        C943   1.269       .  A
O930        C935   1.264       .  A
O931        C934   1.267       .  A
O932        C944   1.271       .  A
O933        C946   1.269       .  A
C934        O939   1.273       .  A
C934       C1261   1.487       .  S
C935       C1221   1.493       .  S
O937        C940   1.270       .  A
O938        C940   1.268       .  A
C940       C1241   1.467       .  S
O941        C946   1.264       .  A
O942        C944   1.269       .  A
C943        O945   1.276       .  A
C943       C2701   1.481       .  S
C944       C1668   1.490       .  S
C946       C1281   1.484       .  S
Fe947       O963   2.049       .  S
Fe947       O953   2.054       .  S
Fe947       O960   2.073       .  S
Fe947       O952   2.046       .  S
Fe947       O958   1.947       .  S
Fe948       O951   2.049       .  S
Fe948       O955   2.097       .  S
Fe948       O959   2.063       .  S
Fe948       O964   2.076       .  S
Fe948       O958   1.960       .  S
Fe949       O967   2.095       .  S
Fe949       O954   2.083       .  S
Fe949       O961   2.087       .  S
Fe949       O950   2.105       .  S
Fe949       O958   1.967       .  S
O950        C957   1.277       .  A
O951        C965   1.272       .  A
O952        C957   1.268       .  A
O953        C956   1.267       .  A
O954        C966   1.272       .  A
O955        C968   1.270       .  A
C956        O961   1.271       .  A
C956       C1268   1.484       .  S
C957       C1181   1.493       .  S
O959        C962   1.270       .  A
O960        C962   1.272       .  A
C962       C1161   1.465       .  S
O963        C968   1.263       .  A
O964        C966   1.270       .  A
C965        O967   1.277       .  A
C965       C1348   1.476       .  S
C966       C1848   1.494       .  S
C968       C1201   1.481       .  S
Fe969       O985   2.055       .  S
Fe969       O975   2.064       .  S
Fe969       O982   2.062       .  S
Fe969       O974   2.045       .  S
Fe969       O980   1.948       .  S
Fe970       O973   2.058       .  S
Fe970       O977   2.089       .  S
Fe970       O981   2.076       .  S
Fe970       O986   2.069       .  S
Fe970       O980   1.960       .  S
Fe971       O989   2.098       .  S
Fe971       O976   2.070       .  S
Fe971       O983   2.076       .  S
Fe971       O972   2.113       .  S
Fe971       O980   1.966       .  S
O972        C979   1.279       .  A
O973        C987   1.272       .  A
O974        C979   1.268       .  A
O975        C978   1.266       .  A
O976        C988   1.270       .  A
O977        C990   1.274       .  A
C978        O983   1.267       .  A
C978       C1141   1.474       .  S
C979       C1228   1.482       .  S
O981        C984   1.270       .  A
O982        C984   1.268       .  A
C984       C1208   1.487       .  S
O985        C990   1.269       .  A
O986        C988   1.271       .  A
C987        O989   1.277       .  A
C987       C2968   1.492       .  S
C988       C1308   1.479       .  S
C990       C1121   1.477       .  S
Fe991      O1007   2.059       .  S
Fe991       O997   2.049       .  S
Fe991      O1004   2.055       .  S
Fe991       O996   2.047       .  S
Fe991      O1002   1.963       .  S
Fe992       O995   2.054       .  S
Fe992       O999   2.075       .  S
Fe992      O1003   2.075       .  S
Fe992      O1008   2.055       .  S
Fe992      O1002   1.970       .  S
Fe993      O1011   2.090       .  S
Fe993       O998   2.082       .  S
Fe993      O1005   2.084       .  S
Fe993       O994   2.100       .  S
Fe993      O1002   1.982       .  S
O994       C1001   1.277       .  A
O995       C1009   1.271       .  A
O996       C1001   1.269       .  A
O997       C1000   1.264       .  A
O998       C1010   1.271       .  A
O999       C1012   1.270       .  A
C1000      O1005   1.268       .  A
C1000      C1101   1.474       .  S
C1001      C1081   1.483       .  S
O1003      C1006   1.269       .  A
O1004      C1006   1.266       .  A
C1006      C1128   1.488       .  S
O1007      C1012   1.269       .  A
O1008      C1010   1.266       .  A
C1009      O1011   1.276       .  A
C1009      C1768   1.489       .  S
C1010      C2868   1.494       .  S
C1012      C1168   1.491       .  S
Fe1013     O1029   2.054       .  S
Fe1013     O1019   2.067       .  S
Fe1013     O1026   2.069       .  S
Fe1013     O1018   2.044       .  S
Fe1013     O1024   1.948       .  S
Fe1014     O1017   2.050       .  S
Fe1014     O1021   2.094       .  S
Fe1014     O1025   2.068       .  S
Fe1014     O1030   2.078       .  S
Fe1014     O1024   1.956       .  S
Fe1015     O1033   2.096       .  S
Fe1015     O1020   2.078       .  S
Fe1015     O1027   2.079       .  S
Fe1015     O1016   2.105       .  S
Fe1015     O1024   1.963       .  S
O1016      C1023   1.278       .  A
O1017      C1031   1.271       .  A
O1018      C1023   1.269       .  A
O1019      C1022   1.268       .  A
O1020      C1032   1.271       .  A
O1021      C1034   1.274       .  A
C1022      O1027   1.269       .  A
C1022      C1148   1.481       .  S
C1023      C1088   1.480       .  S
O1025      C1028   1.268       .  A
O1026      C1028   1.268       .  A
C1028      C1061   1.470       .  S
O1029      C1034   1.270       .  A
O1030      C1032   1.271       .  A
C1031      O1033   1.277       .  A
C1031      C1621   1.485       .  S
C1032      C1448   1.492       .  S
C1034      C1248   1.494       .  S
Fe1035     O1051   2.058       .  S
Fe1035     O1041   2.067       .  S
Fe1035     O1048   2.069       .  S
Fe1035     O1040   2.047       .  S
Fe1035     O1046   1.945       .  S
Fe1036     O1039   2.050       .  S
Fe1036     O1043   2.088       .  S
Fe1036     O1047   2.072       .  S
Fe1036     O1052   2.081       .  S
Fe1036     O1046   1.953       .  S
Fe1037     O1055   2.103       .  S
Fe1037     O1042   2.073       .  S
Fe1037     O1049   2.072       .  S
Fe1037     O1038   2.112       .  S
Fe1037     O1046   1.960       .  S
O1038      C1045   1.280       .  A
O1039      C1053   1.270       .  A
O1040      C1045   1.269       .  A
O1041      C1044   1.268       .  A
O1042      C1054   1.271       .  A
O1043      C1056   1.274       .  A
C1044      O1049   1.267       .  A
C1044      C1108   1.475       .  S
C1045      C1188   1.483       .  S
O1047      C1050   1.269       .  A
O1048      C1050   1.269       .  A
C1050      C1288   1.480       .  S
O1051      C1056   1.270       .  A
O1052      C1054   1.272       .  A
C1053      O1055   1.278       .  A
C1053      C1528   1.491       .  S
C1054      C2661   1.486       .  S
C1056      C1068   1.489       .  S
C1057      C1058   1.406       .  A
C1057      C1062   1.395       .  A
C1057      F1075   1.358       .  S
C1058      C1063   1.481       .  S
C1058      C1059   1.407       .  A
C1059      C1060   1.404       .  A
C1059      F1064   1.357       .  S
C1060      C1061   1.405       .  A
C1060      F1076   1.358       .  S
C1061      C1062   1.403       .  A
C1062      F1065   1.359       .  S
C1063      C1066   1.405       .  A
C1063      C1070   1.403       .  A
C1066      C1067   1.401       .  A
C1066      F1071   1.358       .  S
C1067      C1068   1.412       .  A
C1067      F1073   1.358       .  S
C1068      C1069   1.412       .  A
C1069      C1070   1.398       .  A
C1069      F1072   1.358       .  S
C1070      F1074   1.358       .  S
C1077      C1078   1.410       .  A
C1077      C1082   1.406       .  A
C1077      F1095   1.358       .  S
C1078      C1083   1.491       .  S
C1078      C1079   1.407       .  A
C1079      C1080   1.396       .  A
C1079      F1084   1.358       .  S
C1080      C1081   1.408       .  A
C1080      F1096   1.358       .  S
C1081      C1082   1.407       .  A
C1082      F1085   1.357       .  S
C1083      C1086   1.410       .  A
C1083      C1090   1.407       .  A
C1086      C1087   1.404       .  A
C1086      F1091   1.358       .  S
C1087      C1088   1.406       .  A
C1087      F1093   1.358       .  S
C1088      C1089   1.406       .  A
C1089      C1090   1.397       .  A
C1089      F1092   1.358       .  S
C1090      F1094   1.358       .  S
C1097      C1098   1.404       .  A
C1097      C1102   1.396       .  A
C1097      F1115   1.358       .  S
C1098      C1103   1.480       .  S
C1098      C1099   1.407       .  A
C1099      C1100   1.406       .  A
C1099      F1104   1.357       .  S
C1100      C1101   1.406       .  A
C1100      F1116   1.357       .  S
C1101      C1102   1.404       .  A
C1102      F1105   1.358       .  S
C1103      C1106   1.404       .  A
C1103      C1110   1.407       .  A
C1106      C1107   1.396       .  A
C1106      F1111   1.358       .  S
C1107      C1108   1.405       .  A
C1107      F1113   1.358       .  S
C1108      C1109   1.406       .  A
C1109      C1110   1.404       .  A
C1109      F1112   1.358       .  S
C1110      F1114   1.357       .  S
C1117      C1118   1.408       .  A
C1117      C1122   1.399       .  A
C1117      F1135   1.358       .  S
C1118      C1123   1.487       .  S
C1118      C1119   1.407       .  A
C1119      C1120   1.400       .  A
C1119      F1124   1.358       .  S
C1120      C1121   1.407       .  A
C1120      F1136   1.358       .  S
C1121      C1122   1.406       .  A
C1122      F1125   1.358       .  S
C1123      C1126   1.405       .  A
C1123      C1130   1.408       .  A
C1126      C1127   1.393       .  A
C1126      F1131   1.358       .  S
C1127      C1128   1.411       .  A
C1127      F1133   1.358       .  S
C1128      C1129   1.410       .  A
C1129      C1130   1.405       .  A
C1129      F1132   1.357       .  S
C1130      F1134   1.358       .  S
C1137      C1138   1.408       .  A
C1137      C1142   1.405       .  A
C1137      F1155   1.358       .  S
C1138      C1143   1.484       .  S
C1138      C1139   1.405       .  A
C1139      C1140   1.397       .  A
C1139      F1144   1.358       .  S
C1140      C1141   1.404       .  A
C1140      F1156   1.358       .  S
C1141      C1142   1.406       .  A
C1142      F1145   1.358       .  S
C1143      C1146   1.407       .  A
C1143      C1150   1.404       .  A
C1146      C1147   1.405       .  A
C1146      F1151   1.357       .  S
C1147      C1148   1.407       .  A
C1147      F1153   1.357       .  S
C1148      C1149   1.407       .  A
C1149      C1150   1.398       .  A
C1149      F1152   1.358       .  S
C1150      F1154   1.358       .  S
C1157      C1158   1.408       .  A
C1157      C1162   1.402       .  A
C1157      F1175   1.358       .  S
C1158      C1163   1.482       .  S
C1158      C1159   1.407       .  A
C1159      C1160   1.394       .  A
C1159      F1164   1.358       .  S
C1160      C1161   1.400       .  A
C1160      F1176   1.358       .  S
C1161      C1162   1.404       .  A
C1162      F1165   1.358       .  S
C1163      C1166   1.404       .  A
C1163      C1170   1.405       .  A
C1166      C1167   1.399       .  A
C1166      F1171   1.358       .  S
C1167      C1168   1.413       .  A
C1167      F1173   1.358       .  S
C1168      C1169   1.411       .  A
C1169      C1170   1.398       .  A
C1169      F1172   1.358       .  S
C1170      F1174   1.358       .  S
C1177      C1178   1.408       .  A
C1177      C1182   1.406       .  A
C1177      F1195   1.357       .  S
C1178      C1183   1.491       .  S
C1178      C1179   1.405       .  A
C1179      C1180   1.398       .  A
C1179      F1184   1.358       .  S
C1180      C1181   1.413       .  A
C1180      F1196   1.359       .  S
C1181      C1182   1.410       .  A
C1182      F1185   1.357       .  S
C1183      C1186   1.409       .  A
C1183      C1190   1.407       .  A
C1186      C1187   1.405       .  A
C1186      F1191   1.358       .  S
C1187      C1188   1.407       .  A
C1187      F1193   1.358       .  S
C1188      C1189   1.408       .  A
C1189      C1190   1.400       .  A
C1189      F1192   1.358       .  S
C1190      F1194   1.358       .  S
C1197      C1198   1.408       .  A
C1197      C1202   1.399       .  A
C1197      F1215   1.358       .  S
C1198      C1203   1.492       .  S
C1198      C1199   1.410       .  A
C1199      C1200   1.403       .  A
C1199      F1204   1.357       .  S
C1200      C1201   1.406       .  A
C1200      F1216   1.357       .  S
C1201      C1202   1.406       .  A
C1202      F1205   1.356       .  S
C1203      C1206   1.407       .  A
C1203      C1210   1.409       .  A
C1206      C1207   1.395       .  A
C1206      F1211   1.358       .  S
C1207      C1208   1.409       .  A
C1207      F1213   1.359       .  S
C1208      C1209   1.409       .  A
C1209      C1210   1.406       .  A
C1209      F1212   1.357       .  S
C1210      F1214   1.357       .  S
C1217      C1218   1.403       .  A
C1217      C1222   1.394       .  A
C1217      F1235   1.359       .  S
C1218      C1223   1.490       .  S
C1218      C1219   1.410       .  A
C1219      C1220   1.410       .  A
C1219      F1224   1.357       .  S
C1220      C1221   1.410       .  A
C1220      F1236   1.357       .  S
C1221      C1222   1.413       .  A
C1222      F1225   1.359       .  S
C1223      C1226   1.405       .  A
C1223      C1230   1.410       .  A
C1226      C1227   1.400       .  A
C1226      F1231   1.358       .  S
C1227      C1228   1.409       .  A
C1227      F1233   1.358       .  S
C1228      C1229   1.405       .  A
C1229      C1230   1.405       .  A
C1229      F1232   1.358       .  S
C1230      F1234   1.358       .  S
C1237      C1238   1.408       .  A
C1237      C1242   1.399       .  A
C1237      F1255   1.358       .  S
C1238      C1243   1.485       .  S
C1238      C1239   1.408       .  A
C1239      C1240   1.400       .  A
C1239      F1244   1.358       .  S
C1240      C1241   1.403       .  A
C1240      F1256   1.358       .  S
C1241      C1242   1.403       .  A
C1242      F1245   1.358       .  S
C1243      C1246   1.405       .  A
C1243      C1250   1.404       .  A
C1246      C1247   1.397       .  A
C1246      F1251   1.358       .  S
C1247      C1248   1.412       .  A
C1247      F1253   1.358       .  S
C1248      C1249   1.414       .  A
C1249      C1250   1.403       .  A
C1249      F1252   1.357       .  S
C1250      F1254   1.358       .  S
C1257      C1258   1.409       .  A
C1257      C1262   1.409       .  A
C1257      F1275   1.357       .  S
C1258      C1263   1.484       .  S
C1258      C1259   1.401       .  A
C1259      C1260   1.394       .  A
C1259      F1264   1.359       .  S
C1260      C1261   1.408       .  A
C1260      F1276   1.355       .  S
C1261      C1262   1.408       .  A
C1262      F1265   1.357       .  S
C1263      C1266   1.402       .  A
C1263      C1270   1.410       .  A
C1266      C1267   1.395       .  A
C1266      F1271   1.358       .  S
C1267      C1268   1.409       .  A
C1267      F1273   1.357       .  S
C1268      C1269   1.407       .  A
C1269      C1270   1.407       .  A
C1269      F1272   1.357       .  S
C1270      F1274   1.357       .  S
C1277      C1278   1.401       .  A
C1277      C1282   1.396       .  A
C1277      F1295   1.358       .  S
C1278      C1283   1.476       .  S
C1278      C1279   1.404       .  A
C1279      C1280   1.404       .  A
C1279      F1284   1.357       .  S
C1280      C1281   1.410       .  A
C1280      F1296   1.358       .  S
C1281      C1282   1.409       .  A
C1282      F1285   1.355       .  S
C1283      C1286   1.401       .  A
C1283      C1290   1.405       .  A
C1286      C1287   1.394       .  A
C1286      F1291   1.358       .  S
C1287      C1288   1.409       .  A
C1287      F1293   1.359       .  S
C1288      C1289   1.408       .  A
C1289      C1290   1.405       .  A
C1289      F1292   1.357       .  S
C1290      F1294   1.357       .  S
C1297      C1298   1.403       .  A
C1297      C1302   1.404       .  A
C1297      F1315   1.357       .  S
C1298      C1303   1.481   1_545  S
C1298      C1299   1.402       .  A
C1299      C1300   1.395       .  A
C1299      F1304   1.359       .  S
C1300      C1301   1.414       .  A
C1300      F1316   1.358       .  S
C1301      C1302   1.414       .  A
C1302      F1305   1.357       .  S
C1303      C1306   1.406       .  A
C1303      C1310   1.404       .  A
C1306      C1307   1.404       .  A
C1306      F1311   1.358       .  S
C1307      C1308   1.408       .  A
C1307      F1313   1.358       .  S
C1308      C1309   1.407       .  A
C1309      C1310   1.395       .  A
C1309      F1312   1.358       .  S
C1310      F1314   1.358       .  S
C1317      C1318   1.403       .  A
C1317      C1322   1.403       .  A
C1317      F1335   1.358       .  S
C1318      C1323   1.479       .  S
C1318      C1319   1.403       .  A
C1319      C1320   1.396       .  A
C1319      F1324   1.358       .  S
C1320      C1321   1.410       .  A
C1320      F1336   1.358       .  S
C1321      C1322   1.412       .  A
C1322      F1325   1.358       .  S
C1323      C1326   1.405       .  A
C1323      C1330   1.400       .  A
C1326      C1327   1.406       .  A
C1326      F1331   1.357       .  S
C1327      C1328   1.412       .  A
C1327      F1333   1.357       .  S
C1328      C1329   1.413       .  A
C1329      C1330   1.392       .  A
C1329      F1332   1.359       .  S
C1330      F1334   1.359       .  S
C1337      C1338   1.404       .  A
C1337      C1342   1.404       .  A
C1337      F1355   1.357       .  S
C1338      C1343   1.476   1_545  S
C1338      C1339   1.401       .  A
C1339      C1340   1.391       .  A
C1339      F1344   1.359       .  S
C1340      C1341   1.412       .  A
C1340      F1356   1.359       .  S
C1341      C1342   1.412       .  A
C1342      F1345   1.357       .  S
C1343      C1346   1.404       .  A
C1343      C1350   1.403       .  A
C1346      C1347   1.402       .  A
C1346      F1351   1.358       .  S
C1347      C1348   1.408       .  A
C1347      F1353   1.358       .  S
C1348      C1349   1.407       .  A
C1349      C1350   1.395       .  A
C1349      F1352   1.358       .  S
C1350      F1354   1.358       .  S
C1357      C1358   1.408       .  A
C1357      C1362   1.400       .  A
C1357      F1375   1.358       .  S
C1358      C1363   1.484       .  S
C1358      C1359   1.406       .  A
C1359      C1360   1.396       .  A
C1359      F1364   1.358       .  S
C1360      C1361   1.407       .  A
C1360      F1376   1.358       .  S
C1361      C1362   1.406       .  A
C1362      F1365   1.358       .  S
C1363      C1366   1.406       .  A
C1363      C1370   1.407       .  A
C1366      C1367   1.393       .  A
C1366      F1371   1.359       .  S
C1367      C1368   1.409       .  A
C1367      F1373   1.359       .  S
C1368      C1369   1.408       .  A
C1369      C1370   1.402       .  A
C1369      F1372   1.358       .  S
C1370      F1374   1.357       .  S
C1377      C1378   1.402       .  A
C1377      C1382   1.395       .  A
C1377      F1395   1.358       .  S
C1378      C1383   1.470       .  S
C1378      C1379   1.402       .  A
C1379      C1380   1.398       .  A
C1379      F1384   1.358       .  S
C1380      C1381   1.410       .  A
C1380      F1396   1.358       .  S
C1381      C1382   1.409       .  A
C1382      F1385   1.357       .  S
C1383      C1386   1.403       .  A
C1383      C1390   1.405       .  A
C1386      C1387   1.391       .  A
C1386      F1391   1.359       .  S
C1387      C1388   1.403       .  A
C1387      F1393   1.359       .  S
C1388      C1389   1.404       .  A
C1389      C1390   1.401       .  A
C1389      F1392   1.358       .  S
C1390      F1394   1.357       .  S
C1397      C1398   1.409       .  A
C1397      C1402   1.402       .  A
C1397      F1415   1.358       .  S
C1398      C1403   1.486       .  S
C1398      C1399   1.407       .  A
C1399      C1400   1.398       .  A
C1399      F1404   1.358       .  S
C1400      C1401   1.403       .  A
C1400      F1416   1.357       .  S
C1401      C1402   1.404       .  A
C1402      F1405   1.358       .  S
C1403      C1406   1.407       .  A
C1403      C1410   1.409       .  A
C1406      C1407   1.396       .  A
C1406      F1411   1.358       .  S
C1407      C1408   1.403       .  A
C1407      F1413   1.358       .  S
C1408      C1409   1.405       .  A
C1409      C1410   1.404       .  A
C1409      F1412   1.358       .  S
C1410      F1414   1.358       .  S
C1417      C1418   1.408       .  A
C1417      C1422   1.394       .  A
C1417      F1435   1.358       .  S
C1418      C1423   1.488       .  S
C1418      C1419   1.410       .  A
C1419      C1420   1.404       .  A
C1419      F1424   1.358       .  S
C1420      C1421   1.406       .  A
C1420      F1436   1.358       .  S
C1421      C1422   1.404       .  A
C1422      F1425   1.359       .  S
C1423      C1426   1.409       .  A
C1423      C1430   1.409       .  A
C1426      C1427   1.399       .  A
C1426      F1431   1.358       .  S
C1427      C1428   1.402       .  A
C1427      F1433   1.357       .  S
C1428      C1429   1.403       .  A
C1429      C1430   1.401       .  A
C1429      F1432   1.358       .  S
C1430      F1434   1.358       .  S
C1437      C1438   1.406       .  A
C1437      C1442   1.402       .  A
C1437      F1455   1.358       .  S
C1438      C1443   1.488       .  S
C1438      C1439   1.407       .  A
C1439      C1440   1.404       .  A
C1439      F1444   1.358       .  S
C1440      C1441   1.407       .  A
C1440      F1456   1.358       .  S
C1441      C1442   1.407       .  A
C1442      F1445   1.358       .  S
C1443      C1446   1.404       .  A
C1443      C1450   1.406       .  A
C1446      C1447   1.401       .  A
C1446      F1451   1.358       .  S
C1447      C1448   1.411       .  A
C1447      F1453   1.358       .  S
C1448      C1449   1.411       .  A
C1449      C1450   1.406       .  A
C1449      F1452   1.358       .  S
C1450      F1454   1.357       .  S
C1457      C1458   1.410       .  A
C1457      C1462   1.405       .  A
C1457      F1475   1.357       .  S
C1458      C1463   1.488       .  S
C1458      C1459   1.405       .  A
C1459      C1460   1.395       .  A
C1459      F1464   1.358       .  S
C1460      C1461   1.408       .  A
C1460      F1476   1.359       .  S
C1461      C1462   1.406       .  A
C1462      F1465   1.358       .  S
C1463      C1466   1.407       .  A
C1463      C1470   1.405       .  A
C1466      C1467   1.403       .  A
C1466      F1471   1.358       .  S
C1467      C1468   1.410       .  A
C1467      F1473   1.357       .  S
C1468      C1469   1.412       .  A
C1469      C1470   1.398       .  A
C1469      F1472   1.359       .  S
C1470      F1474   1.358       .  S
C1477      C1478   1.408       .  A
C1477      C1482   1.406       .  A
C1477      F1495   1.357       .  S
C1478      C1483   1.485       .  S
C1478      C1479   1.405       .  A
C1479      C1480   1.397       .  A
C1479      F1484   1.358       .  S
C1480      C1481   1.407       .  A
C1480      F1496   1.358       .  S
C1481      C1482   1.406       .  A
C1482      F1485   1.358       .  S
C1483      C1486   1.408       .  A
C1483      C1490   1.405       .  A
C1486      C1487   1.404       .  A
C1486      F1491   1.358       .  S
C1487      C1488   1.406       .  A
C1487      F1493   1.358       .  S
C1488      C1489   1.405       .  A
C1489      C1490   1.399       .  A
C1489      F1492   1.358       .  S
C1490      F1494   1.358       .  S
C1497      C1498   1.403       .  A
C1497      C1502   1.395       .  A
C1497      F1515   1.358       .  S
C1498      C1503   1.476       .  S
C1498      C1499   1.406       .  A
C1499      C1500   1.404       .  A
C1499      F1504   1.357       .  S
C1500      C1501   1.406       .  A
C1500      F1516   1.358       .  S
C1501      C1502   1.404       .  A
C1502      F1505   1.358       .  S
C1503      C1506   1.402       .  A
C1503      C1510   1.403       .  A
C1506      C1507   1.397       .  A
C1506      F1511   1.358       .  S
C1507      C1508   1.410       .  A
C1507      F1513   1.358       .  S
C1508      C1509   1.412       .  A
C1509      C1510   1.401       .  A
C1509      F1512   1.358       .  S
C1510      F1514   1.358       .  S
C1517      C1518   1.403       .  A
C1517      C1522   1.396       .  A
C1517      F1535   1.358       .  S
C1518      C1523   1.485       .  S
C1518      C1519   1.406       .  A
C1519      C1520   1.407       .  A
C1519      F1524   1.357       .  S
C1520      C1521   1.412       .  A
C1520      F1536   1.357       .  S
C1521      C1522   1.412       .  A
C1522      F1525   1.358       .  S
C1523      C1526   1.403       .  A
C1523      C1530   1.406       .  A
C1526      C1527   1.397       .  A
C1526      F1531   1.358       .  S
C1527      C1528   1.412       .  A
C1527      F1533   1.358       .  S
C1528      C1529   1.411       .  A
C1529      C1530   1.406       .  A
C1529      F1532   1.357       .  S
C1530      F1534   1.357       .  S
C1537      C1538   1.411       .  A
C1537      C1542   1.412       .  A
C1537      F1555   1.357       .  S
C1538      C1543   1.492       .  S
C1538      C1539   1.404       .  A
C1539      C1540   1.393       .  A
C1539      F1544   1.359       .  S
C1540      C1541   1.409       .  A
C1540      F1556   1.359       .  S
C1541      C1542   1.408       .  A
C1542      F1545   1.357       .  S
C1543      C1546   1.409       .  A
C1543      C1550   1.408       .  A
C1546      C1547   1.406       .  A
C1546      F1551   1.357       .  S
C1547      C1548   1.406       .  A
C1547      F1553   1.358       .  S
C1548      C1549   1.405       .  A
C1549      C1550   1.400       .  A
C1549      F1552   1.358       .  S
C1550      F1554   1.358       .  S
C1557      C1558   1.405       .  A
C1557      C1562   1.395       .  A
C1557      F1575   1.358       .  S
C1558      C1563   1.485       .  S
C1558      C1559   1.410       .  A
C1559      C1560   1.404       .  A
C1559      F1564   1.358       .  S
C1560      C1561   1.405       .  A
C1560      F1576   1.358       .  S
C1561      C1562   1.405       .  A
C1562      F1565   1.358       .  S
C1563      C1566   1.409       .  A
C1563      C1570   1.404       .  A
C1566      C1567   1.405       .  A
C1566      F1571   1.357       .  S
C1567      C1568   1.408       .  A
C1567      F1573   1.357       .  S
C1568      C1569   1.410       .  A
C1569      C1570   1.393       .  A
C1569      F1572   1.357       .  S
C1570      F1574   1.359       .  S
C1577      C1578   1.409       .  A
C1577      C1582   1.399       .  A
C1577      F1595   1.358       .  S
C1578      C1583   1.486       .  S
C1578      C1579   1.407       .  A
C1579      C1580   1.399       .  A
C1579      F1584   1.358       .  S
C1580      C1581   1.406       .  A
C1580      F1596   1.358       .  S
C1581      C1582   1.403       .  A
C1582      F1585   1.358       .  S
C1583      C1586   1.405       .  A
C1583      C1590   1.406       .  A
C1586      C1587   1.400       .  A
C1586      F1591   1.358       .  S
C1587      C1588   1.413       .  A
C1587      F1593   1.358       .  S
C1588      C1589   1.412       .  A
C1589      C1590   1.397       .  A
C1589      F1592   1.358       .  S
C1590      F1594   1.358       .  S
C1597      C1598   1.405       .  A
C1597      C1602   1.398       .  A
C1597      F1615   1.358       .  S
C1598      C1603   1.481       .  S
C1598      C1599   1.405       .  A
C1599      C1600   1.400       .  A
C1599      F1604   1.358       .  S
C1600      C1601   1.408       .  A
C1600      F1616   1.358       .  S
C1601      C1602   1.407       .  A
C1602      F1605   1.358       .  S
C1603      C1606   1.402       .  A
C1603      C1610   1.404       .  A
C1606      C1607   1.394       .  A
C1606      F1611   1.359       .  S
C1607      C1608   1.414       .  A
C1607      F1613   1.358       .  S
C1608      C1609   1.414       .  A
C1609      C1610   1.404       .  A
C1609      F1612   1.358       .  S
C1610      F1614   1.358       .  S
C1617      C1618   1.405       .  A
C1617      C1622   1.403       .  A
C1617      F1635   1.358       .  S
C1618      C1623   1.483       .  S
C1618      C1619   1.404       .  A
C1619      C1620   1.396       .  A
C1619      F1624   1.358       .  S
C1620      C1621   1.410       .  A
C1620      F1636   1.359       .  S
C1621      C1622   1.410       .  A
C1622      F1625   1.357       .  S
C1623      C1626   1.404       .  A
C1623      C1630   1.402       .  A
C1626      C1627   1.405       .  A
C1626      F1631   1.358       .  S
C1627      C1628   1.414       .  A
C1627      F1633   1.357       .  S
C1628      C1629   1.414       .  A
C1629      C1630   1.395       .  A
C1629      F1632   1.358       .  S
C1630      F1634   1.358       .  S
C1637      C1638   1.400       .  A
C1637      C1642   1.391       .  A
C1637      F1655   1.359       .  S
C1638      C1643   1.480       .  S
C1638      C1639   1.406       .  A
C1639      C1640   1.406       .  A
C1639      F1644   1.357       .  S
C1640      C1641   1.413       .  A
C1640      F1656   1.357       .  S
C1641      C1642   1.416       .  A
C1642      F1645   1.358       .  S
C1643      C1646   1.405       .  A
C1643      C1650   1.405       .  A
C1646      C1647   1.398       .  A
C1646      F1651   1.358       .  S
C1647      C1648   1.407       .  A
C1647      F1653   1.358       .  S
C1648      C1649   1.409       .  A
C1649      C1650   1.400       .  A
C1649      F1652   1.358       .  S
C1650      F1654   1.358       .  S
C1657      C1658   1.402       .  A
C1657      C1662   1.397       .  A
C1657      F1675   1.358       .  S
C1658      C1663   1.486       .  S
C1658      C1659   1.406       .  A
C1659      C1660   1.406       .  A
C1659      F1664   1.357       .  S
C1660      C1661   1.412       .  A
C1660      F1676   1.357       .  S
C1661      C1662   1.414       .  A
C1662      F1665   1.358       .  S
C1663      C1666   1.405       .  A
C1663      C1670   1.405       .  A
C1666      C1667   1.400       .  A
C1666      F1671   1.358       .  S
C1667      C1668   1.411       .  A
C1667      F1673   1.358       .  S
C1668      C1669   1.410       .  A
C1669      C1670   1.405       .  A
C1669      F1672   1.357       .  S
C1670      F1674   1.357       .  S
C1677      C1678   1.405       .  A
C1677      C1682   1.400       .  A
C1677      F1695   1.358       .  S
C1678      C1683   1.478       .  S
C1678      C1679   1.402       .  A
C1679      C1680   1.395       .  A
C1679      F1684   1.358       .  S
C1680      C1681   1.413       .  A
C1680      F1696   1.358       .  S
C1681      C1682   1.411       .  A
C1682      F1685   1.358       .  S
C1683      C1686   1.407       .  A
C1683      C1690   1.407       .  A
C1686      C1687   1.393       .  A
C1686      F1691   1.358       .  S
C1687      C1688   1.400       .  A
C1687      F1693   1.358       .  S
C1688      C1689   1.404       .  A
C1689      C1690   1.402       .  A
C1689      F1692   1.358       .  S
C1690      F1694   1.358       .  S
C1697      C1698   1.406       .  A
C1697      C1702   1.403       .  A
C1697      F1715   1.358       .  S
C1698      C1703   1.487       .  S
C1698      C1699   1.407       .  A
C1699      C1700   1.395       .  A
C1699      F1704   1.359       .  S
C1700      C1701   1.410       .  A
C1700      F1716   1.358       .  S
C1701      C1702   1.413       .  A
C1702      F1705   1.358       .  S
C1703      C1706   1.408       .  A
C1703      C1710   1.407       .  A
C1706      C1707   1.401       .  A
C1706      F1711   1.358       .  S
C1707      C1708   1.406       .  A
C1707      F1713   1.358       .  S
C1708      C1709   1.404       .  A
C1709      C1710   1.397       .  A
C1709      F1712   1.357       .  S
C1710      F1714   1.358       .  S
C1717      C1718   1.410       .  A
C1717      C1722   1.403       .  A
C1717      F1735   1.358       .  S
C1718      C1723   1.489       .  S
C1718      C1719   1.407       .  A
C1719      C1720   1.397       .  A
C1719      F1724   1.358       .  S
C1720      C1721   1.409       .  A
C1720      F1736   1.358       .  S
C1721      C1722   1.406       .  A
C1722      F1725   1.357       .  S
C1723      C1726   1.411       .  A
C1723      C1730   1.406       .  A
C1726      C1727   1.406       .  A
C1726      F1731   1.358       .  S
C1727      C1728   1.406       .  A
C1727      F1733   1.358       .  S
C1728      C1729   1.407       .  A
C1729      C1730   1.393       .  A
C1729      F1732   1.359       .  S
C1730      F1734   1.358       .  S
C1737      C1738   1.408       .  A
C1737      C1742   1.405       .  A
C1737      F1755   1.357       .  S
C1738      C1743   1.484       .  S
C1738      C1739   1.405       .  A
C1739      C1740   1.396       .  A
C1739      F1744   1.358       .  S
C1740      C1741   1.405       .  A
C1740      F1756   1.358       .  S
C1741      C1742   1.406       .  A
C1742      F1745   1.358       .  S
C1743      C1746   1.407       .  A
C1743      C1750   1.406       .  A
C1746      C1747   1.404       .  A
C1746      F1751   1.357       .  S
C1747      C1748   1.406       .  A
C1747      F1753   1.358       .  S
C1748      C1749   1.405       .  A
C1749      C1750   1.398       .  A
C1749      F1752   1.358       .  S
C1750      F1754   1.358       .  S
C1757      C1758   1.405       .  A
C1757      C1762   1.397       .  A
C1757      F1775   1.359       .  S
C1758      C1763   1.486   1_655  S
C1758      C1759   1.405       .  A
C1759      C1760   1.403       .  A
C1759      F1764   1.357       .  S
C1760      C1761   1.413       .  A
C1760      F1776   1.357       .  S
C1761      C1762   1.413       .  A
C1762      F1765   1.358       .  S
C1763      C1766   1.404       .  A
C1763      C1770   1.407       .  A
C1766      C1767   1.395       .  A
C1766      F1771   1.358       .  S
C1767      C1768   1.411       .  A
C1767      F1773   1.358       .  S
C1768      C1769   1.412       .  A
C1769      C1770   1.405       .  A
C1769      F1772   1.358       .  S
C1770      F1774   1.358       .  S
C1777      C1778   1.408       .  A
C1777      C1782   1.397       .  A
C1777      F1795   1.358       .  S
C1778      C1783   1.487       .  S
C1778      C1779   1.408       .  A
C1779      C1780   1.399       .  A
C1779      F1784   1.358       .  S
C1780      C1781   1.407       .  A
C1780      F1796   1.358       .  S
C1781      C1782   1.406       .  A
C1782      F1785   1.358       .  S
C1783      C1786   1.406       .  A
C1783      C1790   1.408       .  A
C1786      C1787   1.392       .  A
C1786      F1791   1.358       .  S
C1787      C1788   1.410       .  A
C1787      F1793   1.359       .  S
C1788      C1789   1.409       .  A
C1789      C1790   1.403       .  A
C1789      F1792   1.358       .  S
C1790      F1794   1.357       .  S
C1797      C1798   1.406       .  A
C1797      C1802   1.407       .  A
C1797      F1815   1.357       .  S
C1798      C1803   1.482       .  S
C1798      C1799   1.403       .  A
C1799      C1800   1.397       .  A
C1799      F1804   1.358       .  S
C1800      C1801   1.409       .  A
C1800      F1816   1.358       .  S
C1801      C1802   1.409       .  A
C1802      F1805   1.358       .  S
C1803      C1806   1.407       .  A
C1803      C1810   1.404       .  A
C1806      C1807   1.406       .  A
C1806      F1811   1.357       .  S
C1807      C1808   1.407       .  A
C1807      F1813   1.358       .  S
C1808      C1809   1.406       .  A
C1809      C1810   1.398       .  A
C1809      F1812   1.358       .  S
C1810      F1814   1.358       .  S
C1817      C1818   1.404       .  A
C1817      C1822   1.395       .  A
C1817      F1835   1.359       .  S
C1818      C1823   1.483       .  S
C1818      C1819   1.407       .  A
C1819      C1820   1.405       .  A
C1819      F1824   1.357       .  S
C1820      C1821   1.408       .  A
C1820      F1836   1.357       .  S
C1821      C1822   1.409       .  A
C1822      F1825   1.359       .  S
C1823      C1826   1.404       .  A
C1823      C1830   1.407       .  A
C1826      C1827   1.396       .  A
C1826      F1831   1.358       .  S
C1827      C1828   1.409       .  A
C1827      F1833   1.359       .  S
C1828      C1829   1.408       .  A
C1829      C1830   1.403       .  A
C1829      F1832   1.358       .  S
C1830      F1834   1.358       .  S
C1837      C1838   1.405       .  A
C1837      C1842   1.401       .  A
C1837      F1855   1.358       .  S
C1838      C1843   1.494   1_655  S
C1838      C1839   1.407       .  A
C1839      C1840   1.406       .  A
C1839      F1844   1.358       .  S
C1840      C1841   1.414       .  A
C1840      F1856   1.357       .  S
C1841      C1842   1.414       .  A
C1842      F1845   1.358       .  S
C1843      C1846   1.406       .  A
C1843      C1850   1.408       .  A
C1846      C1847   1.402       .  A
C1846      F1851   1.358       .  S
C1847      C1848   1.412       .  A
C1847      F1853   1.358       .  S
C1848      C1849   1.409       .  A
C1849      C1850   1.406       .  A
C1849      F1852   1.357       .  S
C1850      F1854   1.357       .  S
C1857      C1858   1.404       .  A
C1857      C1862   1.397       .  A
C1857      F1875   1.358       .  S
C1858      C1863   1.478       .  S
C1858      C1859   1.405       .  A
C1859      C1860   1.399       .  A
C1859      F1864   1.358       .  S
C1860      C1861   1.407       .  A
C1860      F1876   1.358       .  S
C1861      C1862   1.408       .  A
C1862      F1865   1.358       .  S
C1863      C1866   1.404       .  A
C1863      C1870   1.407       .  A
C1866      C1867   1.392       .  A
C1866      F1871   1.358       .  S
C1867      C1868   1.404       .  A
C1867      F1873   1.358       .  S
C1868      C1869   1.406       .  A
C1869      C1870   1.404       .  A
C1869      F1872   1.357       .  S
C1870      F1874   1.357       .  S
C1877      C1878   1.406       .  A
C1877      C1882   1.398       .  A
C1877      F1895   1.358       .  S
C1878      C1883   1.479       .  S
C1878      C1879   1.404       .  A
C1879      C1880   1.396       .  A
C1879      F1884   1.358       .  S
C1880      C1881   1.409       .  A
C1880      F1896   1.358       .  S
C1881      C1882   1.408       .  A
C1882      F1885   1.358       .  S
C1883      C1886   1.402       .  A
C1883      C1890   1.404       .  A
C1886      C1887   1.393       .  A
C1886      F1891   1.358       .  S
C1887      C1888   1.414       .  A
C1887      F1893   1.359       .  S
C1888      C1889   1.413       .  A
C1889      C1890   1.402       .  A
C1889      F1892   1.357       .  S
C1890      F1894   1.358       .  S
C1897      C1898   1.407       .  A
C1897      C1902   1.396       .  A
C1897      F1915   1.358       .  S
C1898      C1903   1.491       .  S
C1898      C1899   1.409       .  A
C1899      C1900   1.407       .  A
C1899      F1904   1.358       .  S
C1900      C1901   1.408       .  A
C1900      F1916   1.358       .  S
C1901      C1902   1.407       .  A
C1902      F1905   1.358       .  S
C1903      C1906   1.409       .  A
C1903      C1910   1.409       .  A
C1906      C1907   1.401       .  A
C1906      F1911   1.358       .  S
C1907      C1908   1.404       .  A
C1907      F1913   1.358       .  S
C1908      C1909   1.404       .  A
C1909      C1910   1.402       .  A
C1909      F1912   1.358       .  S
C1910      F1914   1.358       .  S
C1917      C1918   1.406       .  A
C1917      C1922   1.398       .  A
C1917      F1935   1.358       .  S
C1918      C1923   1.494       .  S
C1918      C1919   1.412       .  A
C1919      C1920   1.407       .  A
C1919      F1924   1.358       .  S
C1920      C1921   1.407       .  A
C1920      F1936   1.358       .  S
C1921      C1922   1.409       .  A
C1922      F1925   1.358       .  S
C1923      C1926   1.412       .  A
C1923      C1930   1.406       .  A
C1926      C1927   1.409       .  A
C1926      F1931   1.357       .  S
C1927      C1928   1.406       .  A
C1927      F1933   1.357       .  S
C1928      C1929   1.409       .  A
C1929      C1930   1.396       .  A
C1929      F1932   1.358       .  S
C1930      F1934   1.358       .  S
C1937      C1938   1.405       .  A
C1937      C1942   1.397       .  A
C1937      F1955   1.358       .  S
C1938      C1943   1.487       .  S
C1938      C1939   1.406       .  A
C1939      C1940   1.405       .  A
C1939      F1944   1.358       .  S
C1940      C1941   1.412       .  A
C1940      F1956   1.358       .  S
C1941      C1942   1.411       .  A
C1942      F1945   1.358       .  S
C1943      C1946   1.406       .  A
C1943      C1950   1.404       .  A
C1946      C1947   1.406       .  A
C1946      F1951   1.358       .  S
C1947      C1948   1.413       .  A
C1947      F1953   1.358       .  S
C1948      C1949   1.412       .  A
C1949      C1950   1.396       .  A
C1949      F1952   1.358       .  S
C1950      F1954   1.358       .  S
C1957      C1958   1.406       .  A
C1957      C1962   1.404       .  A
C1957      F1975   1.358       .  S
C1958      C1963   1.482       .  S
C1958      C1959   1.404       .  A
C1959      C1960   1.395       .  A
C1959      F1964   1.358       .  S
C1960      C1961   1.408       .  A
C1960      F1976   1.358       .  S
C1961      C1962   1.410       .  A
C1962      F1965   1.358       .  S
C1963      C1966   1.405       .  A
C1963      C1970   1.403       .  A
C1966      C1967   1.404       .  A
C1966      F1971   1.358       .  S
C1967      C1968   1.411       .  A
C1967      F1973   1.357       .  S
C1968      C1969   1.412       .  A
C1969      C1970   1.396       .  A
C1969      F1972   1.358       .  S
C1970      F1974   1.358       .  S
C1977      C1978   1.407       .  A
C1977      C1982   1.406       .  A
C1977      F1995   1.357       .  S
C1978      C1983   1.486       .  S
C1978      C1979   1.402       .  A
C1979      C1980   1.397       .  A
C1979      F1984   1.358       .  S
C1980      C1981   1.413       .  A
C1980      F1996   1.359       .  S
C1981      C1982   1.410       .  A
C1982      F1985   1.357       .  S
C1983      C1986   1.404       .  A
C1983      C1990   1.405       .  A
C1986      C1987   1.404       .  A
C1986      F1991   1.357       .  S
C1987      C1988   1.412       .  A
C1987      F1993   1.358       .  S
C1988      C1989   1.412       .  A
C1989      C1990   1.399       .  A
C1989      F1992   1.358       .  S
C1990      F1994   1.358       .  S
C1997      C1998   1.405       .  A
C1997      C2002   1.404       .  A
C1997      F2015   1.357       .  S
C1998      C2003   1.478       .  S
C1998      C1999   1.401       .  A
C1999      C2000   1.391       .  A
C1999      F2004   1.359       .  S
C2000      C2001   1.414       .  A
C2000      F2016   1.358       .  S
C2001      C2002   1.413       .  A
C2002      F2005   1.357       .  S
C2003      C2006   1.405       .  A
C2003      C2010   1.402       .  A
C2006      C2007   1.398       .  A
C2006      F2011   1.358       .  S
C2007      C2008   1.410       .  A
C2007      F2013   1.358       .  S
C2008      C2009   1.412       .  A
C2009      C2010   1.397       .  A
C2009      F2012   1.358       .  S
C2010      F2014   1.358       .  S
C2017      C2018   1.403       .  A
C2017      C2022   1.401       .  A
C2017      F2035   1.357       .  S
C2018      C2023   1.474   1_565  S
C2018      C2019   1.401       .  A
C2019      C2020   1.396       .  A
C2019      F2024   1.358       .  S
C2020      C2021   1.411       .  A
C2020      F2036   1.358       .  S
C2021      C2022   1.409       .  A
C2022      F2025   1.357       .  S
C2023      C2026   1.403       .  A
C2023      C2030   1.402       .  A
C2026      C2027   1.403       .  A
C2026      F2031   1.358       .  S
C2027      C2028   1.410       .  A
C2027      F2033   1.358       .  S
C2028      C2029   1.407       .  A
C2029      C2030   1.395       .  A
C2029      F2032   1.358       .  S
C2030      F2034   1.358       .  S
C2037      C2038   1.407       .  A
C2037      C2042   1.397       .  A
C2037      F2055   1.358       .  S
C2038      C2043   1.489       .  S
C2038      C2039   1.410       .  A
C2039      C2040   1.407       .  A
C2039      F2044   1.357       .  S
C2040      C2041   1.406       .  A
C2040      F2056   1.357       .  S
C2041      C2042   1.405       .  A
C2042      F2045   1.358       .  S
C2043      C2046   1.409       .  A
C2043      C2050   1.408       .  A
C2046      C2047   1.403       .  A
C2046      F2051   1.358       .  S
C2047      C2048   1.405       .  A
C2047      F2053   1.358       .  S
C2048      C2049   1.404       .  A
C2049      C2050   1.400       .  A
C2049      F2052   1.358       .  S
C2050      F2054   1.358       .  S
C2057      C2058   1.409       .  A
C2057      C2062   1.403       .  A
C2057      F2075   1.357       .  S
C2058      C2063   1.482       .  S
C2058      C2059   1.405       .  A
C2059      C2060   1.393       .  A
C2059      F2064   1.358       .  S
C2060      C2061   1.407       .  A
C2060      F2076   1.359       .  S
C2061      C2062   1.404       .  A
C2062      F2065   1.357       .  S
C2063      C2066   1.406       .  A
C2063      C2070   1.409       .  A
C2066      C2067   1.395       .  A
C2066      F2071   1.358       .  S
C2067      C2068   1.405       .  A
C2067      F2073   1.359       .  S
C2068      C2069   1.403       .  A
C2069      C2070   1.402       .  A
C2069      F2072   1.358       .  S
C2070      F2074   1.358       .  S
C2077      C2078   1.407       .  A
C2077      C2082   1.404       .  A
C2077      F2095   1.357       .  S
C2078      C2083   1.480   1_655  S
C2078      C2079   1.403       .  A
C2079      C2080   1.394       .  A
C2079      F2084   1.358       .  S
C2080      C2081   1.408       .  A
C2080      F2096   1.359       .  S
C2081      C2082   1.407       .  A
C2082      F2085   1.357       .  S
C2083      C2086   1.404       .  A
C2083      C2090   1.405       .  A
C2086      C2087   1.401       .  A
C2086      F2091   1.358       .  S
C2087      C2088   1.409       .  A
C2087      F2093   1.358       .  S
C2088      C2089   1.408       .  A
C2089      C2090   1.396       .  A
C2089      F2092   1.358       .  S
C2090      F2094   1.358       .  S
C2097      C2098   1.403       .  A
C2097      C2102   1.397       .  A
C2097      F2115   1.358       .  S
C2098      C2103   1.486   1_545  S
C2098      C2099   1.406       .  A
C2099      C2100   1.406       .  A
C2099      F2104   1.357       .  S
C2100      C2101   1.411       .  A
C2100      F2116   1.357       .  S
C2101      C2102   1.412       .  A
C2102      F2105   1.358       .  S
C2103      C2106   1.405       .  A
C2103      C2110   1.404       .  A
C2106      C2107   1.405       .  A
C2106      F2111   1.357       .  S
C2107      C2108   1.412       .  A
C2107      F2113   1.357       .  S
C2108      C2109   1.413       .  A
C2109      C2110   1.399       .  A
C2109      F2112   1.358       .  S
C2110      F2114   1.358       .  S
C2117      C2118   1.402       .  A
C2117      C2122   1.396       .  A
C2117      F2135   1.358       .  S
C2118      C2123   1.471       .  S
C2118      C2119   1.402       .  A
C2119      C2120   1.398       .  A
C2119      F2124   1.358       .  S
C2120      C2121   1.410       .  A
C2120      F2136   1.358       .  S
C2121      C2122   1.410       .  A
C2122      F2125   1.358       .  S
C2123      C2126   1.402       .  A
C2123      C2130   1.404       .  A
C2126      C2127   1.391       .  A
C2126      F2131   1.359       .  S
C2127      C2128   1.407       .  A
C2127      F2133   1.359       .  S
C2128      C2129   1.408       .  A
C2129      C2130   1.402       .  A
C2129      F2132   1.358       .  S
C2130      F2134   1.357       .  S
C2137      C2138   1.405       .  A
C2137      C2142   1.396       .  A
C2137      F2155   1.358       .  S
C2138      C2143   1.485       .  S
C2138      C2139   1.409       .  A
C2139      C2140   1.404       .  A
C2139      F2144   1.358       .  S
C2140      C2141   1.406       .  A
C2140      F2156   1.357       .  S
C2141      C2142   1.408       .  A
C2142      F2145   1.359       .  S
C2143      C2146   1.409       .  A
C2143      C2150   1.404       .  A
C2146      C2147   1.405       .  A
C2146      F2151   1.358       .  S
C2147      C2148   1.408       .  A
C2147      F2153   1.358       .  S
C2148      C2149   1.409       .  A
C2149      C2150   1.394       .  A
C2149      F2152   1.359       .  S
C2150      F2154   1.358       .  S
C2157      C2158   1.406       .  A
C2157      C2162   1.406       .  A
C2157      F2175   1.357       .  S
C2158      C2163   1.488       .  S
C2158      C2159   1.405       .  A
C2159      C2160   1.399       .  A
C2159      F2164   1.358       .  S
C2160      C2161   1.411       .  A
C2160      F2176   1.358       .  S
C2161      C2162   1.412       .  A
C2162      F2165   1.357       .  S
C2163      C2166   1.409       .  A
C2163      C2170   1.403       .  A
C2166      C2167   1.409       .  A
C2166      F2171   1.357       .  S
C2167      C2168   1.409       .  A
C2167      F2173   1.357       .  S
C2168      C2169   1.410       .  A
C2169      C2170   1.396       .  A
C2169      F2172   1.359       .  S
C2170      F2174   1.358       .  S
C2177      C2178   1.404       .  A
C2177      C2182   1.406       .  A
C2177      F2195   1.357       .  S
C2178      C2183   1.472       .  S
C2178      C2179   1.399       .  A
C2179      C2180   1.387       .  A
C2179      F2184   1.359       .  S
C2180      C2181   1.411       .  A
C2180      F2196   1.359       .  S
C2181      C2182   1.412       .  A
C2182      F2185   1.357       .  S
C2183      C2186   1.403       .  A
C2183      C2190   1.401       .  A
C2186      C2187   1.394       .  A
C2186      F2191   1.358       .  S
C2187      C2188   1.409       .  A
C2187      F2193   1.358       .  S
C2188      C2189   1.412       .  A
C2189      C2190   1.399       .  A
C2189      F2192   1.358       .  S
C2190      F2194   1.358       .  S
C2197      C2198   1.403       .  A
C2197      C2202   1.397       .  A
C2197      F2215   1.358       .  S
C2198      C2203   1.483       .  S
C2198      C2199   1.407       .  A
C2199      C2200   1.407       .  A
C2199      F2204   1.357       .  S
C2200      C2201   1.407       .  A
C2200      F2216   1.357       .  S
C2201      C2202   1.409       .  A
C2202      F2205   1.359       .  S
C2203      C2206   1.407       .  A
C2203      C2210   1.403       .  A
C2206      C2207   1.408       .  A
C2206      F2211   1.357       .  S
C2207      C2208   1.407       .  A
C2207      F2213   1.357       .  S
C2208      C2209   1.407       .  A
C2209      C2210   1.397       .  A
C2209      F2212   1.359       .  S
C2210      F2214   1.358       .  S
C2217      C2218   1.402       .  A
C2217      C2222   1.395       .  A
C2217      F2235   1.358       .  S
C2218      C2223   1.480       .  S
C2218      C2219   1.405       .  A
C2219      C2220   1.406       .  A
C2219      F2224   1.357       .  S
C2220      C2221   1.410       .  A
C2220      F2236   1.358       .  S
C2221      C2222   1.410       .  A
C2222      F2225   1.358       .  S
C2223      C2226   1.404       .  A
C2223      C2230   1.403       .  A
C2226      C2227   1.400       .  A
C2226      F2231   1.358       .  S
C2227      C2228   1.409       .  A
C2227      F2233   1.358       .  S
C2228      C2229   1.410       .  A
C2229      C2230   1.402       .  A
C2229      F2232   1.358       .  S
C2230      F2234   1.358       .  S
C2237      C2238   1.405       .  A
C2237      C2242   1.399       .  A
C2237      F2255   1.358       .  S
C2238      C2243   1.492   1_455  S
C2238      C2239   1.407       .  A
C2239      C2240   1.407       .  A
C2239      F2244   1.358       .  S
C2240      C2241   1.414       .  A
C2240      F2256   1.358       .  S
C2241      C2242   1.412       .  A
C2242      F2245   1.358       .  S
C2243      C2246   1.405       .  A
C2243      C2250   1.408       .  A
C2246      C2247   1.399       .  A
C2246      F2251   1.358       .  S
C2247      C2248   1.411       .  A
C2247      F2253   1.358       .  S
C2248      C2249   1.411       .  A
C2249      C2250   1.408       .  A
C2249      F2252   1.357       .  S
C2250      F2254   1.357       .  S
C2257      C2258   1.408       .  A
C2257      C2262   1.400       .  A
C2257      F2275   1.358       .  S
C2258      C2263   1.489       .  S
C2258      C2259   1.407       .  A
C2259      C2260   1.401       .  A
C2259      F2264   1.358       .  S
C2260      C2261   1.408       .  A
C2260      F2276   1.358       .  S
C2261      C2262   1.407       .  A
C2262      F2265   1.358       .  S
C2263      C2266   1.408       .  A
C2263      C2270   1.404       .  A
C2266      C2267   1.406       .  A
C2266      F2271   1.357       .  S
C2267      C2268   1.411       .  A
C2267      F2273   1.357       .  S
C2268      C2269   1.413       .  A
C2269      C2270   1.395       .  A
C2269      F2272   1.358       .  S
C2270      F2274   1.358       .  S
C2277      C2278   1.405       .  A
C2277      C2282   1.403       .  A
C2277      F2295   1.358       .  S
C2278      C2283   1.477       .  S
C2278      C2279   1.401       .  A
C2279      C2280   1.389       .  A
C2279      F2284   1.359       .  S
C2280      C2281   1.414       .  A
C2280      F2296   1.358       .  S
C2281      C2282   1.412       .  A
C2282      F2285   1.358       .  S
C2283      C2286   1.405       .  A
C2283      C2290   1.404       .  A
C2286      C2287   1.396       .  A
C2286      F2291   1.358       .  S
C2287      C2288   1.407       .  A
C2287      F2293   1.358       .  S
C2288      C2289   1.409       .  A
C2289      C2290   1.398       .  A
C2289      F2292   1.358       .  S
C2290      F2294   1.358       .  S
C2297      C2298   1.407       .  A
C2297      C2302   1.404       .  A
C2297      F2315   1.357       .  S
C2298      C2303   1.479       .  S
C2298      C2299   1.403       .  A
C2299      C2300   1.393       .  A
C2299      F2304   1.359       .  S
C2300      C2301   1.409       .  A
C2300      F2316   1.359       .  S
C2301      C2302   1.408       .  A
C2302      F2305   1.357       .  S
C2303      C2306   1.404       .  A
C2303      C2310   1.406       .  A
C2306      C2307   1.396       .  A
C2306      F2311   1.358       .  S
C2307      C2308   1.408       .  A
C2307      F2313   1.359       .  S
C2308      C2309   1.407       .  A
C2309      C2310   1.401       .  A
C2309      F2312   1.358       .  S
C2310      F2314   1.358       .  S
C2317      C2318   1.409       .  A
C2317      C2322   1.406       .  A
C2317      F2335   1.357       .  S
C2318      C2323   1.490       .  S
C2318      C2319   1.407       .  A
C2319      C2320   1.399       .  A
C2319      F2324   1.358       .  S
C2320      C2321   1.407       .  A
C2320      F2336   1.359       .  S
C2321      C2322   1.404       .  A
C2322      F2325   1.357       .  S
C2323      C2326   1.407       .  A
C2323      C2330   1.409       .  A
C2326      C2327   1.399       .  A
C2326      F2331   1.358       .  S
C2327      C2328   1.405       .  A
C2327      F2333   1.358       .  S
C2328      C2329   1.405       .  A
C2329      C2330   1.406       .  A
C2329      F2332   1.358       .  S
C2330      F2334   1.357       .  S
C2337      C2338   1.403       .  A
C2337      C2342   1.395       .  A
C2337      F2355   1.358       .  S
C2338      C2343   1.485       .  S
C2338      C2339   1.407       .  A
C2339      C2340   1.406       .  A
C2339      F2344   1.358       .  S
C2340      C2341   1.411       .  A
C2340      F2356   1.357       .  S
C2341      C2342   1.413       .  A
C2342      F2345   1.358       .  S
C2343      C2346   1.405       .  A
C2343      C2350   1.405       .  A
C2346      C2347   1.397       .  A
C2346      F2351   1.359       .  S
C2347      C2348   1.412       .  A
C2347      F2353   1.358       .  S
C2348      C2349   1.411       .  A
C2349      C2350   1.404       .  A
C2349      F2352   1.357       .  S
C2350      F2354   1.357       .  S
C2357      C2358   1.406       .  A
C2357      C2362   1.399       .  A
C2357      F2375   1.358       .  S
C2358      C2363   1.482       .  S
C2358      C2359   1.405       .  A
C2359      C2360   1.398       .  A
C2359      F2364   1.358       .  S
C2360      C2361   1.409       .  A
C2360      F2376   1.357       .  S
C2361      C2362   1.408       .  A
C2362      F2365   1.358       .  S
C2363      C2366   1.409       .  A
C2363      C2370   1.406       .  A
C2366      C2367   1.404       .  A
C2366      F2371   1.358       .  S
C2367      C2368   1.405       .  A
C2367      F2373   1.358       .  S
C2368      C2369   1.402       .  A
C2369      C2370   1.391       .  A
C2369      F2372   1.359       .  S
C2370      F2374   1.358       .  S
C2377      C2378   1.404       .  A
C2377      C2382   1.397       .  A
C2377      F2395   1.358       .  S
C2378      C2383   1.486       .  S
C2378      C2379   1.406       .  A
C2379      C2380   1.406       .  A
C2379      F2384   1.358       .  S
C2380      C2381   1.411       .  A
C2380      F2396   1.358       .  S
C2381      C2382   1.410       .  A
C2382      F2385   1.358       .  S
C2383      C2386   1.406       .  A
C2383      C2390   1.404       .  A
C2386      C2387   1.406       .  A
C2386      F2391   1.358       .  S
C2387      C2388   1.412       .  A
C2387      F2393   1.358       .  S
C2388      C2389   1.410       .  A
C2389      C2390   1.397       .  A
C2389      F2392   1.358       .  S
C2390      F2394   1.358       .  S
C2397      C2398   1.402       .  A
C2397      C2402   1.392       .  A
C2397      F2415   1.359       .  S
C2398      C2403   1.480       .  S
C2398      C2399   1.405       .  A
C2399      C2400   1.404       .  A
C2399      F2404   1.358       .  S
C2400      C2401   1.413       .  A
C2400      F2416   1.357       .  S
C2401      C2402   1.414       .  A
C2402      F2405   1.358       .  S
C2403      C2406   1.406       .  A
C2403      C2410   1.405       .  A
C2406      C2407   1.397       .  A
C2406      F2411   1.358       .  S
C2407      C2408   1.407       .  A
C2407      F2413   1.359       .  S
C2408      C2409   1.407       .  A
C2409      C2410   1.399       .  A
C2409      F2412   1.358       .  S
C2410      F2414   1.358       .  S
C2417      C2418   1.403       .  A
C2417      C2422   1.405       .  A
C2417      F2435   1.357       .  S
C2418      C2423   1.474       .  S
C2418      C2419   1.400       .  A
C2419      C2420   1.392       .  A
C2419      F2424   1.359       .  S
C2420      C2421   1.411       .  A
C2420      F2436   1.358       .  S
C2421      C2422   1.412       .  A
C2422      F2425   1.357       .  S
C2423      C2426   1.404       .  A
C2423      C2430   1.403       .  A
C2426      C2427   1.400       .  A
C2426      F2431   1.358       .  S
C2427      C2428   1.406       .  A
C2427      F2433   1.358       .  S
C2428      C2429   1.406       .  A
C2429      C2430   1.398       .  A
C2429      F2432   1.358       .  S
C2430      F2434   1.358       .  S
C2437      C2438   1.405       .  A
C2437      C2442   1.404       .  A
C2437      F2455   1.357       .  S
C2438      C2443   1.480   1_556  S
C2438      C2439   1.402       .  A
C2439      C2440   1.397       .  A
C2439      F2444   1.358       .  S
C2440      C2441   1.411       .  A
C2440      F2456   1.358       .  S
C2441      C2442   1.410       .  A
C2442      F2445   1.357       .  S
C2443      C2446   1.404       .  A
C2443      C2450   1.403       .  A
C2446      C2447   1.403       .  A
C2446      F2451   1.357       .  S
C2447      C2448   1.410       .  A
C2447      F2453   1.358       .  S
C2448      C2449   1.411       .  A
C2449      C2450   1.398       .  A
C2449      F2452   1.358       .  S
C2450      F2454   1.358       .  S
C2457      C2458   1.402       .  A
C2457      C2462   1.391       .  A
C2457      F2475   1.359       .  S
C2458      C2463   1.484       .  S
C2458      C2459   1.407       .  A
C2459      C2460   1.410       .  A
C2459      F2464   1.357       .  S
C2460      C2461   1.411       .  A
C2460      F2476   1.357       .  S
C2461      C2462   1.412       .  A
C2462      F2465   1.359       .  S
C2463      C2466   1.405       .  A
C2463      C2470   1.407       .  A
C2466      C2467   1.398       .  A
C2466      F2471   1.358       .  S
C2467      C2468   1.406       .  A
C2467      F2473   1.358       .  S
C2468      C2469   1.407       .  A
C2469      C2470   1.405       .  A
C2469      F2472   1.358       .  S
C2470      F2474   1.358       .  S
C2477      C2478   1.409       .  A
C2477      C2482   1.403       .  A
C2477      F2495   1.358       .  S
C2478      C2483   1.484       .  S
C2478      C2479   1.405       .  A
C2479      C2480   1.395       .  A
C2479      F2484   1.358       .  S
C2480      C2481   1.407       .  A
C2480      F2496   1.358       .  S
C2481      C2482   1.406       .  A
C2482      F2485   1.358       .  S
C2483      C2486   1.405       .  A
C2483      C2490   1.409       .  A
C2486      C2487   1.393       .  A
C2486      F2491   1.359       .  S
C2487      C2488   1.408       .  A
C2487      F2493   1.357       .  S
C2488      C2489   1.407       .  A
C2489      C2490   1.405       .  A
C2489      F2492   1.357       .  S
C2490      F2494   1.357       .  S
C2497      C2498   1.404       .  A
C2497      C2502   1.402       .  A
C2497      F2515   1.358       .  S
C2498      C2503   1.479   1_556  S
C2498      C2499   1.402       .  A
C2499      C2500   1.395       .  A
C2499      F2504   1.358       .  S
C2500      C2501   1.412       .  A
C2500      F2516   1.358       .  S
C2501      C2502   1.412       .  A
C2502      F2505   1.357       .  S
C2503      C2506   1.405       .  A
C2503      C2510   1.405       .  A
C2506      C2507   1.400       .  A
C2506      F2511   1.358       .  S
C2507      C2508   1.406       .  A
C2507      F2513   1.358       .  S
C2508      C2509   1.406       .  A
C2509      C2510   1.398       .  A
C2509      F2512   1.358       .  S
C2510      F2514   1.358       .  S
C2517      C2518   1.405       .  A
C2517      C2522   1.392       .  A
C2517      F2535   1.358       .  S
C2518      C2523   1.482       .  S
C2518      C2519   1.406       .  A
C2519      C2520   1.406       .  A
C2519      F2524   1.357       .  S
C2520      C2521   1.410       .  A
C2520      F2536   1.358       .  S
C2521      C2522   1.406       .  A
C2522      F2525   1.358       .  S
C2523      C2526   1.407       .  A
C2523      C2530   1.405       .  A
C2526      C2527   1.403       .  A
C2526      F2531   1.358       .  S
C2527      C2528   1.406       .  A
C2527      F2533   1.358       .  S
C2528      C2529   1.405       .  A
C2529      C2530   1.397       .  A
C2529      F2532   1.358       .  S
C2530      F2534   1.358       .  S
C2537      C2538   1.410       .  A
C2537      C2542   1.403       .  A
C2537      F2555   1.358       .  S
C2538      C2543   1.493       .  S
C2538      C2539   1.407       .  A
C2539      C2540   1.401       .  A
C2539      F2544   1.358       .  S
C2540      C2541   1.410       .  A
C2540      F2556   1.358       .  S
C2541      C2542   1.407       .  A
C2542      F2545   1.358       .  S
C2543      C2546   1.410       .  A
C2543      C2550   1.406       .  A
C2546      C2547   1.409       .  A
C2546      F2551   1.358       .  S
C2547      C2548   1.410       .  A
C2547      F2553   1.357       .  S
C2548      C2549   1.410       .  A
C2549      C2550   1.397       .  A
C2549      F2552   1.358       .  S
C2550      F2554   1.358       .  S
C2557      C2558   1.407       .  A
C2557      C2562   1.397       .  A
C2557      F2575   1.358       .  S
C2558      C2563   1.478       .  S
C2558      C2559   1.408       .  A
C2559      C2560   1.396       .  A
C2559      F2564   1.358       .  S
C2560      C2561   1.401       .  A
C2560      F2576   1.358       .  S
C2561      C2562   1.401       .  A
C2562      F2565   1.358       .  S
C2563      C2566   1.404       .  A
C2563      C2570   1.404       .  A
C2566      C2567   1.400       .  A
C2566      F2571   1.358       .  S
C2567      C2568   1.412       .  A
C2567      F2573   1.357       .  S
C2568      C2569   1.411       .  A
C2569      C2570   1.393       .  A
C2569      F2572   1.358       .  S
C2570      F2574   1.359       .  S
C2577      C2578   1.403       .  A
C2577      C2582   1.392       .  A
C2577      F2595   1.359       .  S
C2578      C2583   1.481       .  S
C2578      C2579   1.405       .  A
C2579      C2580   1.406       .  A
C2579      F2584   1.357       .  S
C2580      C2581   1.411       .  A
C2580      F2596   1.357       .  S
C2581      C2582   1.411       .  A
C2582      F2585   1.359       .  S
C2583      C2586   1.406       .  A
C2583      C2590   1.407       .  A
C2586      C2587   1.397       .  A
C2586      F2591   1.358       .  S
C2587      C2588   1.404       .  A
C2587      F2593   1.358       .  S
C2588      C2589   1.405       .  A
C2589      C2590   1.401       .  A
C2589      F2592   1.357       .  S
C2590      F2594   1.358       .  S
C2597      C2598   1.408       .  A
C2597      C2602   1.401       .  A
C2597      F2615   1.358       .  S
C2598      C2603   1.487       .  S
C2598      C2599   1.408       .  A
C2599      C2600   1.401       .  A
C2599      F2604   1.358       .  S
C2600      C2601   1.403       .  A
C2600      F2616   1.357       .  S
C2601      C2602   1.404       .  A
C2602      F2605   1.358       .  S
C2603      C2606   1.405       .  A
C2603      C2610   1.406       .  A
C2606      C2607   1.397       .  A
C2606      F2611   1.358       .  S
C2607      C2608   1.412       .  A
C2607      F2613   1.358       .  S
C2608      C2609   1.412       .  A
C2609      C2610   1.403       .  A
C2609      F2612   1.358       .  S
C2610      F2614   1.358       .  S
C2617      C2618   1.404       .  A
C2617      C2622   1.399       .  A
C2617      F2635   1.358       .  S
C2618      C2623   1.480       .  S
C2618      C2619   1.406       .  A
C2619      C2620   1.401       .  A
C2619      F2624   1.358       .  S
C2620      C2621   1.404       .  A
C2620      F2636   1.358       .  S
C2621      C2622   1.405       .  A
C2622      F2625   1.358       .  S
C2623      C2626   1.401       .  A
C2623      C2630   1.406       .  A
C2626      C2627   1.394       .  A
C2626      F2631   1.359       .  S
C2627      C2628   1.411       .  A
C2627      F2633   1.359       .  S
C2628      C2629   1.410       .  A
C2629      C2630   1.406       .  A
C2629      F2632   1.357       .  S
C2630      F2634   1.357       .  S
C2637      C2638   1.405       .  A
C2637      C2642   1.400       .  A
C2637      F2655   1.358       .  S
C2638      C2643   1.482       .  S
C2638      C2639   1.406       .  A
C2639      C2640   1.396       .  A
C2639      F2644   1.358       .  S
C2640      C2641   1.408       .  A
C2640      F2656   1.358       .  S
C2641      C2642   1.410       .  A
C2642      F2645   1.358       .  S
C2643      C2646   1.405       .  A
C2643      C2650   1.403       .  A
C2646      C2647   1.403       .  A
C2646      F2651   1.357       .  S
C2647      C2648   1.412       .  A
C2647      F2653   1.357       .  S
C2648      C2649   1.413       .  A
C2649      C2650   1.392       .  A
C2649      F2652   1.358       .  S
C2650      F2654   1.359       .  S
C2657      C2658   1.405       .  A
C2657      C2662   1.404       .  A
C2657      F2675   1.357       .  S
C2658      C2663   1.483       .  S
C2658      C2659   1.404       .  A
C2659      C2660   1.401       .  A
C2659      F2664   1.358       .  S
C2660      C2661   1.409       .  A
C2660      F2676   1.358       .  S
C2661      C2662   1.409       .  A
C2662      F2665   1.358       .  S
C2663      C2666   1.405       .  A
C2663      C2670   1.402       .  A
C2666      C2667   1.406       .  A
C2666      F2671   1.358       .  S
C2667      C2668   1.411       .  A
C2667      F2673   1.358       .  S
C2668      C2669   1.411       .  A
C2669      C2670   1.400       .  A
C2669      F2672   1.358       .  S
C2670      F2674   1.358       .  S
C2677      C2678   1.400       .  A
C2677      C2682   1.396       .  A
C2677      F2695   1.358       .  S
C2678      C2683   1.475       .  S
C2678      C2679   1.401       .  A
C2679      C2680   1.402       .  A
C2679      F2684   1.357       .  S
C2680      C2681   1.413       .  A
C2680      F2696   1.357       .  S
C2681      C2682   1.415       .  A
C2682      F2685   1.358       .  S
C2683      C2686   1.402       .  A
C2683      C2690   1.404       .  A
C2686      C2687   1.397       .  A
C2686      F2691   1.358       .  S
C2687      C2688   1.407       .  A
C2687      F2693   1.358       .  S
C2688      C2689   1.407       .  A
C2689      C2690   1.401       .  A
C2689      F2692   1.358       .  S
C2690      F2694   1.357       .  S
C2697      C2698   1.402       .  A
C2697      C2702   1.398       .  A
C2697      F2715   1.358       .  S
C2698      C2703   1.480       .  S
C2698      C2699   1.406       .  A
C2699      C2700   1.405       .  A
C2699      F2704   1.358       .  S
C2700      C2701   1.408       .  A
C2700      F2716   1.358       .  S
C2701      C2702   1.408       .  A
C2702      F2705   1.358       .  S
C2703      C2706   1.403       .  A
C2703      C2710   1.405       .  A
C2706      C2707   1.399       .  A
C2706      F2711   1.358       .  S
C2707      C2708   1.410       .  A
C2707      F2713   1.358       .  S
C2708      C2709   1.409       .  A
C2709      C2710   1.404       .  A
C2709      F2712   1.358       .  S
C2710      F2714   1.357       .  S
C2717      C2718   1.404       .  A
C2717      C2722   1.391       .  A
C2717      F2735   1.358       .  S
C2718      C2723   1.483       .  S
C2718      C2719   1.408       .  A
C2719      C2720   1.404       .  A
C2719      F2724   1.358       .  S
C2720      C2721   1.409       .  A
C2720      F2736   1.357       .  S
C2721      C2722   1.410       .  A
C2722      F2725   1.359       .  S
C2723      C2726   1.407       .  A
C2723      C2730   1.406       .  A
C2726      C2727   1.399       .  A
C2726      F2731   1.358       .  S
C2727      C2728   1.406       .  A
C2727      F2733   1.358       .  S
C2728      C2729   1.407       .  A
C2729      C2730   1.397       .  A
C2729      F2732   1.358       .  S
C2730      F2734   1.358       .  S
C2737      C2738   1.405       .  A
C2737      C2742   1.397       .  A
C2737      F2755   1.358       .  S
C2738      C2743   1.487       .  S
C2738      C2739   1.407       .  A
C2739      C2740   1.405       .  A
C2739      F2744   1.357       .  S
C2740      C2741   1.409       .  A
C2740      F2756   1.357       .  S
C2741      C2742   1.409       .  A
C2742      F2745   1.358       .  S
C2743      C2746   1.402       .  A
C2743      C2750   1.406       .  A
C2746      C2747   1.395       .  A
C2746      F2751   1.359       .  S
C2747      C2748   1.416       .  A
C2747      F2753   1.358       .  S
C2748      C2749   1.413       .  A
C2749      C2750   1.406       .  A
C2749      F2752   1.357       .  S
C2750      F2754   1.357       .  S
C2757      C2758   1.404       .  A
C2757      C2762   1.392       .  A
C2757      F2775   1.359       .  S
C2758      C2763   1.484       .  S
C2758      C2759   1.407       .  A
C2759      C2760   1.405       .  A
C2759      F2764   1.357       .  S
C2760      C2761   1.411       .  A
C2760      F2776   1.357       .  S
C2761      C2762   1.412       .  A
C2762      F2765   1.359       .  S
C2763      C2766   1.407       .  A
C2763      C2770   1.406       .  A
C2766      C2767   1.398       .  A
C2766      F2771   1.358       .  S
C2767      C2768   1.406       .  A
C2767      F2773   1.357       .  S
C2768      C2769   1.407       .  A
C2769      C2770   1.400       .  A
C2769      F2772   1.358       .  S
C2770      F2774   1.358       .  S
C2777      C2778   1.405       .  A
C2777      C2782   1.401       .  A
C2777      F2795   1.357       .  S
C2778      C2783   1.473       .  S
C2778      C2779   1.403       .  A
C2779      C2780   1.392       .  A
C2779      F2784   1.359       .  S
C2780      C2781   1.406       .  A
C2780      F2796   1.359       .  S
C2781      C2782   1.406       .  A
C2782      F2785   1.358       .  S
C2783      C2786   1.403       .  A
C2783      C2790   1.402       .  A
C2786      C2787   1.398       .  A
C2786      F2791   1.358       .  S
C2787      C2788   1.409       .  A
C2787      F2793   1.358       .  S
C2788      C2789   1.411       .  A
C2789      C2790   1.396       .  A
C2789      F2792   1.358       .  S
C2790      F2794   1.358       .  S
C2797      C2798   1.404       .  A
C2797      C2802   1.395       .  A
C2797      F2815   1.358       .  S
C2798      C2803   1.484   1_455  S
C2798      C2799   1.407       .  A
C2799      C2800   1.405       .  A
C2799      F2804   1.358       .  S
C2800      C2801   1.410       .  A
C2800      F2816   1.358       .  S
C2801      C2802   1.409       .  A
C2802      F2805   1.358       .  S
C2803      C2806   1.404       .  A
C2803      C2810   1.403       .  A
C2806      C2807   1.396       .  A
C2806      F2811   1.359       .  S
C2807      C2808   1.413       .  A
C2807      F2813   1.358       .  S
C2808      C2809   1.415       .  A
C2809      C2810   1.403       .  A
C2809      F2812   1.357       .  S
C2810      F2814   1.358       .  S
C2817      C2818   1.404       .  A
C2817      C2822   1.397       .  A
C2817      F2835   1.358       .  S
C2818      C2823   1.479       .  S
C2818      C2819   1.406       .  A
C2819      C2820   1.403       .  A
C2819      F2824   1.357       .  S
C2820      C2821   1.404       .  A
C2820      F2836   1.358       .  S
C2821      C2822   1.405       .  A
C2822      F2825   1.359       .  S
C2823      C2826   1.403       .  A
C2823      C2830   1.405       .  A
C2826      C2827   1.396       .  A
C2826      F2831   1.359       .  S
C2827      C2828   1.409       .  A
C2827      F2833   1.358       .  S
C2828      C2829   1.409       .  A
C2829      C2830   1.404       .  A
C2829      F2832   1.357       .  S
C2830      F2834   1.357       .  S
C2837      C2838   1.404       .  A
C2837      C2842   1.400       .  A
C2837      F2855   1.358       .  S
C2838      C2843   1.475       .  S
C2838      C2839   1.403       .  A
C2839      C2840   1.399       .  A
C2839      F2844   1.358       .  S
C2840      C2841   1.407       .  A
C2840      F2856   1.358       .  S
C2841      C2842   1.406       .  A
C2842      F2845   1.358       .  S
C2843      C2846   1.403       .  A
C2843      C2850   1.398       .  A
C2846      C2847   1.407       .  A
C2846      F2851   1.357       .  S
C2847      C2848   1.413       .  A
C2847      F2853   1.357       .  S
C2848      C2849   1.416       .  A
C2849      C2850   1.391       .  A
C2849      F2852   1.359       .  S
C2850      F2854   1.359       .  S
C2857      C2858   1.406       .  A
C2857      C2862   1.405       .  A
C2857      F2875   1.358       .  S
C2858      C2863   1.481   1_556  S
C2858      C2859   1.403       .  A
C2859      C2860   1.398       .  A
C2859      F2864   1.358       .  S
C2860      C2861   1.407       .  A
C2860      F2876   1.358       .  S
C2861      C2862   1.408       .  A
C2862      F2865   1.358       .  S
C2863      C2866   1.404       .  A
C2863      C2870   1.401       .  A
C2866      C2867   1.406       .  A
C2866      F2871   1.357       .  S
C2867      C2868   1.413       .  A
C2867      F2873   1.357       .  S
C2868      C2869   1.414       .  A
C2869      C2870   1.396       .  A
C2869      F2872   1.358       .  S
C2870      F2874   1.358       .  S
C2877      C2878   1.403       .  A
C2877      C2882   1.402       .  A
C2877      F2895   1.358       .  S
C2878      C2883   1.473   1_455  S
C2878      C2879   1.402       .  A
C2879      C2880   1.391       .  A
C2879      F2884   1.359       .  S
C2880      C2881   1.408       .  A
C2880      F2896   1.358       .  S
C2881      C2882   1.411       .  A
C2882      F2885   1.358       .  S
C2883      C2886   1.403       .  A
C2883      C2890   1.400       .  A
C2886      C2887   1.404       .  A
C2886      F2891   1.358       .  S
C2887      C2888   1.413       .  A
C2887      F2893   1.357       .  S
C2888      C2889   1.412       .  A
C2889      C2890   1.390       .  A
C2889      F2892   1.359       .  S
C2890      F2894   1.359       .  S
C2897      C2898   1.406       .  A
C2897      C2902   1.397       .  A
C2897      F2915   1.358       .  S
C2898      C2903   1.493       .  S
C2898      C2899   1.411       .  A
C2899      C2900   1.407       .  A
C2899      F2904   1.358       .  S
C2900      C2901   1.408       .  A
C2900      F2916   1.357       .  S
C2901      C2902   1.408       .  A
C2902      F2905   1.357       .  S
C2903      C2906   1.406       .  A
C2903      C2910   1.410       .  A
C2906      C2907   1.398       .  A
C2906      F2911   1.358       .  S
C2907      C2908   1.410       .  A
C2907      F2913   1.359       .  S
C2908      C2909   1.408       .  A
C2909      C2910   1.406       .  A
C2909      F2912   1.357       .  S
C2910      F2914   1.358       .  S
C2917      C2918   1.408       .  A
C2917      C2922   1.407       .  A
C2917      F2935   1.357       .  S
C2918      C2923   1.481       .  S
C2918      C2919   1.402       .  A
C2919      C2920   1.393       .  A
C2919      F2924   1.358       .  S
C2920      C2921   1.409       .  A
C2920      F2936   1.357       .  S
C2921      C2922   1.409       .  A
C2922      F2925   1.358       .  S
C2923      C2926   1.403       .  A
C2923      C2930   1.409       .  A
C2926      C2927   1.396       .  A
C2926      F2931   1.358       .  S
C2927      C2928   1.406       .  A
C2927      F2933   1.357       .  S
C2928      C2929   1.405       .  A
C2929      C2930   1.405       .  A
C2929      F2932   1.357       .  S
C2930      F2934   1.357       .  S
C2937      C2938   1.409       .  A
C2937      C2942   1.400       .  A
C2937      F2955   1.358       .  S
C2938      C2943   1.486       .  S
C2938      C2939   1.408       .  A
C2939      C2940   1.398       .  A
C2939      F2944   1.358       .  S
C2940      C2941   1.402       .  A
C2940      F2956   1.358       .  S
C2941      C2942   1.403       .  A
C2942      F2945   1.357       .  S
C2943      C2946   1.406       .  A
C2943      C2950   1.405       .  A
C2946      C2947   1.403       .  A
C2946      F2951   1.358       .  S
C2947      C2948   1.413       .  A
C2947      F2953   1.358       .  S
C2948      C2949   1.412       .  A
C2949      C2950   1.395       .  A
C2949      F2952   1.358       .  S
C2950      F2954   1.358       .  S
C2957      C2958   1.408       .  A
C2957      C2962   1.407       .  A
C2957      F2975   1.358       .  S
C2958      C2963   1.489   1_556  S
C2958      C2959   1.406       .  A
C2959      C2960   1.397       .  A
C2959      F2964   1.358       .  S
C2960      C2961   1.407       .  A
C2960      F2976   1.358       .  S
C2961      C2962   1.410       .  A
C2962      F2965   1.358       .  S
C2963      C2966   1.405       .  A
C2963      C2970   1.407       .  A
C2966      C2967   1.397       .  A
C2966      F2971   1.358       .  S
C2967      C2968   1.410       .  A
C2967      F2973   1.358       .  S
C2968      C2969   1.412       .  A
C2969      C2970   1.407       .  A
C2969      F2972   1.358       .  S
C2970      F2974   1.357       .  S
C2977      C2978   1.407       .  A
C2977      C2982   1.402       .  A
C2977      F2995   1.358       .  S
C2978      C2983   1.483       .  S
C2978      C2979   1.406       .  A
C2979      C2980   1.397       .  A
C2979      F2984   1.358       .  S
C2980      C2981   1.405       .  A
C2980      F2996   1.357       .  S
C2981      C2982   1.406       .  A
C2982      F2985   1.357       .  S
C2983      C2986   1.405       .  A
C2983      C2990   1.403       .  A
C2986      C2987   1.405       .  A
C2986      F2991   1.358       .  S
C2987      C2988   1.414       .  A
C2987      F2993   1.357       .  S
C2988      C2989   1.414       .  A
C2989      C2990   1.393       .  A
C2989      F2992   1.358       .  S
C2990      F2994   1.359       .  S
C2997      C2998   1.404       .  A
C2997      C3002   1.403       .  A
C2997      F3015   1.357       .  S
C2998      C3003   1.475       .  S
C2998      C2999   1.401       .  A
C2999      C3000   1.396       .  A
C2999      F3004   1.358       .  S
C3000      C3001   1.409       .  A
C3000      F3016   1.357       .  S
C3001      C3002   1.409       .  A
C3002      F3005   1.358       .  S
C3003      C3006   1.405       .  A
C3003      C3010   1.401       .  A
C3006      C3007   1.407       .  A
C3006      F3011   1.357       .  S
C3007      C3008   1.409       .  A
C3007      F3013   1.357       .  S
C3008      C3009   1.409       .  A
C3009      C3010   1.391       .  A
C3009      F3012   1.359       .  S
C3010      F3014   1.359       .  S
C3017      C3018   1.404       .  A
C3017      C3022   1.396       .  A
C3017      F3035   1.358       .  S
C3018      C3023   1.488       .  S
C3018      C3019   1.410       .  A
C3019      C3020   1.409       .  A
C3019      F3024   1.358       .  S
C3020      C3021   1.408       .  A
C3020      F3036   1.357       .  S
C3021      C3022   1.408       .  A
C3022      F3025   1.358       .  S
C3023      C3026   1.405       .  A
C3023      C3030   1.408       .  A
C3026      C3027   1.401       .  A
C3026      F3031   1.358       .  S
C3027      C3028   1.410       .  A
C3027      F3033   1.359       .  S
C3028      C3029   1.406       .  A
C3029      C3030   1.403       .  A
C3029      F3032   1.357       .  S
C3030      F3034   1.357       .  S
C3037      C3038   1.408       .  A
C3037      C3042   1.404       .  A
C3037      F3055   1.358       .  S
C3038      C3043   1.484       .  S
C3038      C3039   1.406       .  A
C3039      C3040   1.394       .  A
C3039      F3044   1.358       .  S
C3040      C3041   1.405       .  A
C3040      F3056   1.358       .  S
C3041      C3042   1.406       .  A
C3042      F3045   1.358       .  S
C3043      C3046   1.405       .  A
C3043      C3050   1.408       .  A
C3046      C3047   1.395       .  A
C3046      F3051   1.358       .  S
C3047      C3048   1.408       .  A
C3047      F3053   1.357       .  S
C3048      C3049   1.407       .  A
C3049      C3050   1.403       .  A
C3049      F3052   1.357       .  S
C3050      F3054   1.358       .  S
C3057      C3058   1.406       .  A
C3057      C3062   1.404       .  A
C3057      F3075   1.358       .  S
C3058      C3063   1.480       .  S
C3058      C3059   1.403       .  A
C3059      C3060   1.397       .  A
C3059      F3064   1.358       .  S
C3060      C3061   1.409       .  A
C3060      F3076   1.358       .  S
C3061      C3062   1.407       .  A
C3062      F3065   1.357       .  S
C3063      C3066   1.405       .  A
C3063      C3070   1.402       .  A
C3066      C3067   1.405       .  A
C3066      F3071   1.357       .  S
C3067      C3068   1.411       .  A
C3067      F3073   1.358       .  S
C3068      C3069   1.411       .  A
C3069      C3070   1.394       .  A
C3069      F3072   1.358       .  S
C3070      F3074   1.358       .  S
C3077      C3078   1.403       .  A
C3077      C3082   1.400       .  A
C3077      F3095   1.358       .  S
C3078      C3083   1.471       .  S
C3078      C3079   1.402       .  A
C3079      C3080   1.395       .  A
C3079      F3084   1.358       .  S
C3080      C3081   1.406       .  A
C3080      F3096   1.358       .  S
C3081      C3082   1.407       .  A
C3082      F3085   1.358       .  S
C3083      C3086   1.401       .  A
C3083      C3090   1.399       .  A
C3086      C3087   1.402       .  A
C3086      F3091   1.358       .  S
C3087      C3088   1.413       .  A
C3087      F3093   1.358       .  S
C3088      C3089   1.413       .  A
C3089      C3090   1.393       .  A
C3089      F3092   1.358       .  S
C3090      F3094   1.358       .  S
C3097      C3098   1.402       .  A
C3097      C3102   1.395       .  A
C3097      F3115   1.358       .  S
C3098      C3103   1.486       .  S
C3098      C3099   1.407       .  A
C3099      C3100   1.408       .  A
C3099      F3104   1.358       .  S
C3100      C3101   1.412       .  A
C3100      F3116   1.357       .  S
C3101      C3102   1.413       .  A
C3102      F3105   1.358       .  S
C3103      C3106   1.403       .  A
C3103      C3110   1.406       .  A
C3106      C3107   1.396       .  A
C3106      F3111   1.358       .  S
C3107      C3108   1.412       .  A
C3107      F3113   1.358       .  S
C3108      C3109   1.412       .  A
C3109      C3110   1.407       .  A
C3109      F3112   1.358       .  S
C3110      F3114   1.357       .  S
C3117      C3118   1.403       .  A
C3117      C3122   1.405       .  A
C3117      F3135   1.357       .  S
C3118      C3123   1.473       .  S
C3118      C3119   1.399       .  A
C3119      C3120   1.391       .  A
C3119      F3124   1.359       .  S
C3120      C3121   1.411       .  A
C3120      F3136   1.359       .  S
C3121      C3122   1.411       .  A
C3122      F3125   1.357       .  S
C3123      C3126   1.403       .  A
C3123      C3130   1.401       .  A
C3126      C3127   1.401       .  A
C3126      F3131   1.358       .  S
C3127      C3128   1.410       .  A
C3127      F3133   1.358       .  S
C3128      C3129   1.410       .  A
C3129      C3130   1.396       .  A
C3129      F3132   1.358       .  S
C3130      F3134   1.358       .  S
C3137      C3138   1.401       .  A
C3137      C3142   1.392       .  A
C3137      F3155   1.359       .  S
C3138      C3143   1.473       .  S
C3138      C3139   1.403       .  A
C3139      C3140   1.403       .  A
C3139      F3144   1.357       .  S
C3140      C3141   1.411       .  A
C3140      F3156   1.357       .  S
C3141      C3142   1.411       .  A
C3142      F3145   1.359       .  S
C3143      C3146   1.401       .  A
C3143      C3150   1.403       .  A
C3146      C3147   1.392       .  A
C3146      F3151   1.359       .  S
C3147      C3148   1.411       .  A
C3147      F3153   1.359       .  S
C3148      C3149   1.411       .  A
C3149      C3150   1.402       .  A
C3149      F3152   1.357       .  S
C3150      F3154   1.357       .  S
C3157      C3158   1.402       .  A
C3157      C3162   1.391       .  A
C3157      F3175   1.359       .  S
C3158      C3163   1.479       .  S
C3158      C3159   1.407       .  A
C3159      C3160   1.406       .  A
C3159      F3164   1.357       .  S
C3160      C3161   1.408       .  A
C3160      F3176   1.357       .  S
C3161      C3162   1.408       .  A
C3162      F3165   1.359       .  S
C3163      C3166   1.404       .  A
C3163      C3170   1.404       .  A
C3166      C3167   1.401       .  A
C3166      F3171   1.358       .  S
C3167      C3168   1.409       .  A
C3167      F3173   1.357       .  S
C3168      C3169   1.409       .  A
C3169      C3170   1.398       .  A
C3169      F3172   1.358       .  S
C3170      F3174   1.358       .  S
C3177      C3178   1.407       .  A
C3177      C3182   1.401       .  A
C3177      F3195   1.358       .  S
C3178      C3183   1.477       .  S
C3178      C3179   1.406       .  A
C3179      C3180   1.392       .  A
C3179      F3184   1.359       .  S
C3180      C3181   1.403       .  A
C3180      F3196   1.359       .  S
C3181      C3182   1.404       .  A
C3182      F3185   1.357       .  S
C3183      C3186   1.404       .  A
C3183      C3190   1.405       .  A
C3186      C3187   1.397       .  A
C3186      F3191   1.358       .  S
C3187      C3188   1.410       .  A
C3187      F3193   1.358       .  S
C3188      C3189   1.408       .  A
C3189      C3190   1.396       .  A
C3189      F3192   1.358       .  S
C3190      F3194   1.358       .  S
C3197      C3198   1.402       .  A
C3197      C3202   1.394       .  A
C3197      F3215   1.358       .  S
C3198      C3203   1.480   1_556  S
C3198      C3199   1.405       .  A
C3199      C3200   1.405       .  A
C3199      F3204   1.357       .  S
C3200      C3201   1.411       .  A
C3200      F3216   1.358       .  S
C3201      C3202   1.409       .  A
C3202      F3205   1.358       .  S
C3203      C3206   1.401       .  A
C3203      C3210   1.404       .  A
C3206      C3207   1.395       .  A
C3206      F3211   1.359       .  S
C3207      C3208   1.414       .  A
C3207      F3213   1.358       .  S
C3208      C3209   1.413       .  A
C3209      C3210   1.405       .  A
C3209      F3212   1.357       .  S
C3210      F3214   1.357       .  S
C3217      C3218   1.408       .  A
C3217      C3222   1.404       .  A
C3217      F3235   1.358       .  S
C3218      C3223   1.485       .  S
C3218      C3219   1.404       .  A
C3219      C3220   1.397       .  A
C3219      F3224   1.358       .  S
C3220      C3221   1.408       .  A
C3220      F3236   1.359       .  S
C3221      C3222   1.406       .  A
C3222      F3225   1.357       .  S
C3223      C3226   1.407       .  A
C3223      C3230   1.404       .  A
C3226      C3227   1.404       .  A
C3226      F3231   1.357       .  S
C3227      C3228   1.410       .  A
C3227      F3233   1.357       .  S
C3228      C3229   1.412       .  A
C3229      C3230   1.397       .  A
C3229      F3232   1.359       .  S
C3230      F3234   1.358       .  S
C3237      C3238   1.410       .  A
C3237      C3242   1.403       .  A
C3237      F3255   1.358       .  S
C3238      C3243   1.484       .  S
C3238      C3239   1.405       .  A
C3239      C3240   1.395       .  A
C3239      F3244   1.358       .  S
C3240      C3241   1.407       .  A
C3240      F3256   1.358       .  S
C3241      C3242   1.404       .  A
C3242      F3245   1.357       .  S
C3243      C3246   1.405       .  A
C3243      C3250   1.409       .  A
C3246      C3247   1.392       .  A
C3246      F3251   1.358       .  S
C3247      C3248   1.404       .  A
C3247      F3253   1.357       .  S
C3248      C3249   1.407       .  A
C3249      C3250   1.406       .  A
C3249      F3252   1.358       .  S
C3250      F3254   1.358       .  S
C3257      C3258   1.407       .  A
C3257      C3262   1.404       .  A
C3257      F3275   1.358       .  S
C3258      C3263   1.484   1_556  S
C3258      C3259   1.403       .  A
C3259      C3260   1.392       .  A
C3259      F3264   1.358       .  S
C3260      C3261   1.413       .  A
C3260      F3276   1.358       .  S
C3261      C3262   1.412       .  A
C3262      F3265   1.358       .  S
C3263      C3266   1.406       .  A
C3263      C3270   1.406       .  A
C3266      C3267   1.402       .  A
C3266      F3271   1.358       .  S
C3267      C3268   1.409       .  A
C3267      F3273   1.358       .  S
C3268      C3269   1.407       .  A
C3269      C3270   1.396       .  A
C3269      F3272   1.358       .  S
C3270      F3274   1.358       .  S
C3277      C3278   1.403       .  A
C3277      C3282   1.398       .  A
C3277      F3295   1.358       .  S
C3278      C3283   1.487   1_545  S
C3278      C3279   1.406       .  A
C3279      C3280   1.407       .  A
C3279      F3284   1.358       .  S
C3280      C3281   1.412       .  A
C3280      F3296   1.357       .  S
C3281      C3282   1.412       .  A
C3282      F3285   1.358       .  S
C3283      C3286   1.406       .  A
C3283      C3290   1.404       .  A
C3286      C3287   1.406       .  A
C3286      F3291   1.357       .  S
C3287      C3288   1.411       .  A
C3287      F3293   1.358       .  S
C3288      C3289   1.410       .  A
C3289      C3290   1.399       .  A
C3289      F3292   1.358       .  S
C3290      F3294   1.358       .  S
C3297      C3298   1.406       .  A
C3297      C3302   1.406       .  A
C3297      F3315   1.357       .  S
C3298      C3303   1.485       .  S
C3298      C3299   1.404       .  A
C3299      C3300   1.393       .  A
C3299      F3304   1.359       .  S
C3300      C3301   1.412       .  A
C3300      F3316   1.358       .  S
C3301      C3302   1.413       .  A
C3302      F3305   1.357       .  S
C3303      C3306   1.408       .  A
C3303      C3310   1.405       .  A
C3306      C3307   1.403       .  A
C3306      F3311   1.358       .  S
C3307      C3308   1.407       .  A
C3307      F3313   1.358       .  S
C3308      C3309   1.406       .  A
C3309      C3310   1.396       .  A
C3309      F3312   1.357       .  S
C3310      F3314   1.358       .  S
C3317      C3318   1.404       .  A
C3317      C3322   1.393       .  A
C3317      F3335   1.359       .  S
C3318      C3323   1.484       .  S
C3318      C3319   1.407       .  A
C3319      C3320   1.406       .  A
C3319      F3324   1.357       .  S
C3320      C3321   1.410       .  A
C3320      F3336   1.357       .  S
C3321      C3322   1.410       .  A
C3322      F3325   1.359       .  S
C3323      C3326   1.409       .  A
C3323      C3330   1.404       .  A
C3326      C3327   1.402       .  A
C3326      F3331   1.358       .  S
C3327      C3328   1.404       .  A
C3327      F3333   1.357       .  S
C3328      C3329   1.407       .  A
C3329      C3330   1.398       .  A
C3329      F3332   1.357       .  S
C3330      F3334   1.358       .  S
C3337      C3338   1.404       .  A
C3337      C3342   1.399       .  A
C3337      F3355   1.358       .  S
C3338      C3343   1.489       .  S
C3338      C3339   1.408       .  A
C3339      C3340   1.406       .  A
C3339      F3344   1.357       .  S
C3340      C3341   1.410       .  A
C3340      F3356   1.357       .  S
C3341      C3342   1.412       .  A
C3342      F3345   1.358       .  S
C3343      C3346   1.405       .  A
C3343      C3350   1.409       .  A
C3346      C3347   1.398       .  A
C3346      F3351   1.358       .  S
C3347      C3348   1.409       .  A
C3347      F3353   1.359       .  S
C3348      C3349   1.407       .  A
C3349      C3350   1.408       .  A
C3349      F3352   1.357       .  S
C3350      F3354   1.357       .  S
C3357      C3358   1.402       .  A
C3357      C3362   1.397       .  A
C3357      F3375   1.358       .  S
C3358      C3363   1.476   1_545  S
C3358      C3359   1.404       .  A
C3359      C3360   1.402       .  A
C3359      F3364   1.357       .  S
C3360      C3361   1.409       .  A
C3360      F3376   1.358       .  S
C3361      C3362   1.410       .  A
C3362      F3365   1.358       .  S
C3363      C3366   1.402       .  A
C3363      C3370   1.403       .  A
C3366      C3367   1.398       .  A
C3366      F3371   1.358       .  S
C3367      C3368   1.410       .  A
C3367      F3373   1.358       .  S
C3368      C3369   1.410       .  A
C3369      C3370   1.402       .  A
C3369      F3372   1.358       .  S
C3370      F3374   1.358       .  S
C3377      C3378   1.404       .  A
C3377      C3382   1.394       .  A
C3377      F3395   1.358       .  S
C3378      C3383   1.485       .  S
C3378      C3379   1.408       .  A
C3379      C3380   1.406       .  A
C3379      F3384   1.358       .  S
C3380      C3381   1.409       .  A
C3380      F3396   1.357       .  S
C3381      C3382   1.410       .  A
C3382      F3385   1.359       .  S
C3383      C3386   1.405       .  A
C3383      C3390   1.409       .  A
C3386      C3387   1.398       .  A
C3386      F3391   1.358       .  S
C3387      C3388   1.407       .  A
C3387      F3393   1.359       .  S
C3388      C3389   1.405       .  A
C3389      C3390   1.402       .  A
C3389      F3392   1.358       .  S
C3390      F3394   1.358       .  S
C3397      C3398   1.403       .  A
C3397      C3402   1.396       .  A
C3397      F3415   1.358       .  S
C3398      C3403   1.482       .  S
C3398      C3399   1.405       .  A
C3399      C3400   1.406       .  A
C3399      F3404   1.357       .  S
C3400      C3401   1.410       .  A
C3400      F3416   1.358       .  S
C3401      C3402   1.409       .  A
C3402      F3405   1.358       .  S
C3403      C3406   1.405       .  A
C3403      C3410   1.407       .  A
C3406      C3407   1.399       .  A
C3406      F3411   1.358       .  S
C3407      C3408   1.404       .  A
C3407      F3413   1.358       .  S
C3408      C3409   1.405       .  A
C3409      C3410   1.403       .  A
C3409      F3412   1.358       .  S
C3410      F3414   1.358       .  S
C3417      C3418   1.405       .  A
C3417      C3422   1.403       .  A
C3417      F3435   1.357       .  S
C3418      C3423   1.475       .  S
C3418      C3419   1.403       .  A
C3419      C3420   1.395       .  A
C3419      F3424   1.358       .  S
C3420      C3421   1.407       .  A
C3420      F3436   1.359       .  S
C3421      C3422   1.407       .  A
C3422      F3425   1.358       .  S
C3423      C3426   1.403       .  A
C3423      C3430   1.401       .  A
C3426      C3427   1.401       .  A
C3426      F3431   1.358       .  S
C3427      C3428   1.412       .  A
C3427      F3433   1.358       .  S
C3428      C3429   1.412       .  A
C3429      C3430   1.396       .  A
C3429      F3432   1.357       .  S
C3430      F3434   1.358       .  S
C3437      C3438   1.402       .  A
C3437      C3442   1.397       .  A
C3437      F3455   1.358       .  S
C3438      C3443   1.471       .  S
C3438      C3439   1.402       .  A
C3439      C3440   1.396       .  A
C3439      F3444   1.358       .  S
C3440      C3441   1.409       .  A
C3440      F3456   1.358       .  S
C3441      C3442   1.409       .  A
C3442      F3445   1.358       .  S
C3443      C3446   1.402       .  A
C3443      C3450   1.401       .  A
C3446      C3447   1.401       .  A
C3446      F3451   1.357       .  S
C3447      C3448   1.412       .  A
C3447      F3453   1.358       .  S
C3448      C3449   1.412       .  A
C3449      C3450   1.390       .  A
C3449      F3452   1.358       .  S
C3450      F3454   1.359       .  S
C3457      C3458   1.405       .  A
C3457      C3462   1.404       .  A
C3457      F3475   1.358       .  S
C3458      C3463   1.481       .  S
C3458      C3459   1.403       .  A
C3459      C3460   1.398       .  A
C3459      F3464   1.358       .  S
C3460      C3461   1.409       .  A
C3460      F3476   1.358       .  S
C3461      C3462   1.409       .  A
C3462      F3465   1.358       .  S
C3463      C3466   1.404       .  A
C3463      C3470   1.404       .  A
C3466      C3467   1.402       .  A
C3466      F3471   1.358       .  S
C3467      C3468   1.409       .  A
C3467      F3473   1.358       .  S
C3468      C3469   1.409       .  A
C3469      C3470   1.400       .  A
C3469      F3472   1.358       .  S
C3470      F3474   1.358       .  S
C3477      C3478   1.406       .  A
C3477      C3482   1.403       .  A
C3477      F3495   1.357       .  S
C3478      C3483   1.485       .  S
C3478      C3479   1.406       .  A
C3479      C3480   1.400       .  A
C3479      F3484   1.358       .  S
C3480      C3481   1.408       .  A
C3480      F3496   1.358       .  S
C3481      C3482   1.408       .  A
C3482      F3485   1.358       .  S
C3483      C3486   1.405       .  A
C3483      C3490   1.402       .  A
C3486      C3487   1.405       .  A
C3486      F3491   1.358       .  S
C3487      C3488   1.413       .  A
C3487      F3493   1.357       .  S
C3488      C3489   1.414       .  A
C3489      C3490   1.398       .  A
C3489      F3492   1.358       .  S
C3490      F3494   1.358       .  S
C3497      C3498   1.401       .  A
C3497      C3502   1.395       .  A
C3497      F3515   1.358       .  S
C3498      C3503   1.484       .  S
C3498      C3499   1.406       .  A
C3499      C3500   1.408       .  A
C3499      F3504   1.358       .  S
C3500      C3501   1.414       .  A
C3500      F3516   1.358       .  S
C3501      C3502   1.412       .  A
C3502      F3505   1.358       .  S
C3503      C3506   1.405       .  A
C3503      C3510   1.405       .  A
C3506      C3507   1.404       .  A
C3506      F3511   1.357       .  S
C3507      C3508   1.411       .  A
C3507      F3513   1.358       .  S
C3508      C3509   1.407       .  A
C3509      C3510   1.398       .  A
C3509      F3512   1.358       .  S
C3510      F3514   1.358       .  S
C3517      C3518   1.403       .  A
C3517      C3522   1.394       .  A
C3517      F3535   1.358       .  S
C3518      C3523   1.476       .  S
C3518      C3519   1.404       .  A
C3519      C3520   1.402       .  A
C3519      F3524   1.358       .  S
C3520      C3521   1.411       .  A
C3520      F3536   1.358       .  S
C3521      C3522   1.409       .  A
C3522      F3525   1.358       .  S
C3523      C3526   1.404       .  A
C3523      C3530   1.402       .  A
C3526      C3527   1.402       .  A
C3526      F3531   1.357       .  S
C3527      C3528   1.410       .  A
C3527      F3533   1.358       .  S
C3528      C3529   1.411       .  A
C3529      C3530   1.393       .  A
C3529      F3532   1.358       .  S
C3530      F3534   1.358       .  S
C3537      C3538   1.404       .  A
C3537      C3542   1.397       .  A
C3537      F3555   1.358       .  S
C3538      C3543   1.485       .  S
C3538      C3539   1.407       .  A
C3539      C3540   1.404       .  A
C3539      F3544   1.358       .  S
C3540      C3541   1.410       .  A
C3540      F3556   1.358       .  S
C3541      C3542   1.409       .  A
C3542      F3545   1.356       .  S
C3543      C3546   1.406       .  A
C3543      C3550   1.409       .  A
C3546      C3547   1.396       .  A
C3546      F3551   1.358       .  S
C3547      C3548   1.404       .  A
C3547      F3553   1.358       .  S
C3548      C3549   1.405       .  A
C3549      C3550   1.406       .  A
C3549      F3552   1.358       .  S
C3550      F3554   1.358       .  S
C3557      C3558   1.407       .  A
C3557      C3562   1.407       .  A
C3557      F3575   1.358       .  S
C3558      C3563   1.482       .  S
C3558      C3559   1.403       .  A
C3559      C3560   1.395       .  A
C3559      F3564   1.358       .  S
C3560      C3561   1.406       .  A
C3560      F3576   1.358       .  S
C3561      C3562   1.408       .  A
C3562      F3565   1.358       .  S
C3563      C3566   1.404       .  A
C3563      C3570   1.401       .  A
C3566      C3567   1.407       .  A
C3566      F3571   1.357       .  S
C3567      C3568   1.415       .  A
C3567      F3573   1.357       .  S
C3568      C3569   1.415       .  A
C3569      C3570   1.395       .  A
C3569      F3572   1.358       .  S
C3570      F3574   1.358       .  S
C3577      C3578   1.400       .  A
C3577      C3582   1.393       .  A
C3577      F3595   1.358       .  S
C3578      C3583   1.473       .  S
C3578      C3579   1.404       .  A
C3579      C3580   1.404       .  A
C3579      F3584   1.357       .  S
C3580      C3581   1.408       .  A
C3580      F3596   1.358       .  S
C3581      C3582   1.409       .  A
C3582      F3585   1.358       .  S
C3583      C3586   1.401       .  A
C3583      C3590   1.403       .  A
C3586      C3587   1.395       .  A
C3586      F3591   1.358       .  S
C3587      C3588   1.410       .  A
C3587      F3593   1.358       .  S
C3588      C3589   1.410       .  A
C3589      C3590   1.403       .  A
C3589      F3592   1.358       .  S
C3590      F3594   1.357       .  S
C3597      C3598   1.400       .  A
C3597      C3602   1.393       .  A
C3597      F3615   1.359       .  S
C3598      C3603   1.478       .  S
C3598      C3599   1.405       .  A
C3599      C3600   1.407       .  A
C3599      F3604   1.357       .  S
C3600      C3601   1.411       .  A
C3600      F3616   1.357       .  S
C3601      C3602   1.412       .  A
C3602      F3605   1.358       .  S
C3603      C3606   1.402       .  A
C3603      C3610   1.403       .  A
C3606      C3607   1.397       .  A
C3606      F3611   1.358       .  S
C3607      C3608   1.411       .  A
C3607      F3613   1.358       .  S
C3608      C3609   1.412       .  A
C3609      C3610   1.403       .  A
C3609      F3612   1.358       .  S
C3610      F3614   1.358       .  S
C3617      C3618   1.405       .  A
C3617      C3622   1.397       .  A
C3617      F3635   1.358       .  S
C3618      C3623   1.476       .  S
C3618      C3619   1.405       .  A
C3619      C3620   1.397       .  A
C3619      F3624   1.358       .  S
C3620      C3621   1.403       .  A
C3620      F3636   1.358       .  S
C3621      C3622   1.405       .  A
C3622      F3625   1.359       .  S
C3623      C3626   1.403       .  A
C3623      C3630   1.403       .  A
C3626      C3627   1.402       .  A
C3626      F3631   1.358       .  S
C3627      C3628   1.412       .  A
C3627      F3633   1.357       .  S
C3628      C3629   1.410       .  A
C3629      C3630   1.392       .  A
C3629      F3632   1.358       .  S
C3630      F3634   1.358       .  S
C3637      C3638   1.405       .  A
C3637      C3642   1.406       .  A
C3637      F3655   1.358       .  S
C3638      C3643   1.482   1_655  S
C3638      C3639   1.402       .  A
C3639      C3640   1.398       .  A
C3639      F3644   1.358       .  S
C3640      C3641   1.411       .  A
C3640      F3656   1.358       .  S
C3641      C3642   1.412       .  A
C3642      F3645   1.358       .  S
C3643      C3646   1.405       .  A
C3643      C3650   1.402       .  A
C3646      C3647   1.406       .  A
C3646      F3651   1.357       .  S
C3647      C3648   1.411       .  A
C3647      F3653   1.358       .  S
C3648      C3649   1.410       .  A
C3649      C3650   1.397       .  A
C3649      F3652   1.358       .  S
C3650      F3654   1.358       .  S
C3657      C3658   1.404       .  A
C3657      C3662   1.405       .  A
C3657      F3675   1.358       .  S
C3658      C3663   1.481   1_565  S
C3658      C3659   1.402       .  A
C3659      C3660   1.397       .  A
C3659      F3664   1.358       .  S
C3660      C3661   1.410       .  A
C3660      F3676   1.358       .  S
C3661      C3662   1.412       .  A
C3662      F3665   1.358       .  S
C3663      C3666   1.406       .  A
C3663      C3670   1.401       .  A
C3666      C3667   1.407       .  A
C3666      F3671   1.357       .  S
C3667      C3668   1.411       .  A
C3667      F3673   1.358       .  S
C3668      C3669   1.411       .  A
C3669      C3670   1.395       .  A
C3669      F3672   1.358       .  S
C3670      F3674   1.358       .  S
C3677      C3678   1.408       .  A
C3677      C3682   1.404       .  A
C3677      F3695   1.357       .  S
C3678      C3683   1.485       .  S
C3678      C3679   1.405       .  A
C3679      C3680   1.395       .  A
C3679      F3684   1.358       .  S
C3680      C3681   1.409       .  A
C3680      F3696   1.359       .  S
C3681      C3682   1.407       .  A
C3682      F3685   1.357       .  S
C3683      C3686   1.407       .  A
C3683      C3690   1.405       .  A
C3686      C3687   1.402       .  A
C3686      F3691   1.358       .  S
C3687      C3688   1.410       .  A
C3687      F3693   1.358       .  S
C3688      C3689   1.409       .  A
C3689      C3690   1.397       .  A
C3689      F3692   1.358       .  S
C3690      F3694   1.358       .  S
C3697      C3698   1.403       .  A
C3697      C3702   1.397       .  A
C3697      F3715   1.358       .  S
C3698      C3703   1.485       .  S
C3698      C3699   1.408       .  A
C3699      C3700   1.405       .  A
C3699      F3704   1.357       .  S
C3700      C3701   1.408       .  A
C3700      F3716   1.357       .  S
C3701      C3702   1.410       .  A
C3702      F3705   1.356       .  S
C3703      C3706   1.409       .  A
C3703      C3710   1.403       .  A
C3706      C3707   1.408       .  A
C3706      F3711   1.357       .  S
C3707      C3708   1.408       .  A
C3707      F3713   1.357       .  S
C3708      C3709   1.409       .  A
C3709      C3710   1.395       .  A
C3709      F3712   1.357       .  S
C3710      F3714   1.359       .  S
C3717      C3718   1.411       .  A
C3717      C3722   1.411       .  A
C3717      F3735   1.357       .  S
C3718      C3723   1.499   1_554  S
C3718      C3719   1.407       .  A
C3719      C3720   1.399       .  A
C3719      F3724   1.358       .  S
C3720      C3721   1.410       .  A
C3720      F3736   1.358       .  S
C3721      C3722   1.411       .  A
C3722      F3725   1.358       .  S
C3723      C3726   1.409       .  A
C3723      C3730   1.406       .  A
C3726      C3727   1.410       .  A
C3726      F3731   1.357       .  S
C3727      C3728   1.414       .  A
C3727      F3733   1.357       .  S
C3728      C3729   1.414       .  A
C3729      C3730   1.400       .  A
C3729      F3732   1.358       .  S
C3730      F3734   1.358       .  S
C3737      C3738   1.407       .  A
C3737      C3742   1.409       .  A
C3737      F3755   1.357       .  S
C3738      C3743   1.485   1_545  S
C3738      C3739   1.401       .  A
C3739      C3740   1.394       .  A
C3739      F3744   1.358       .  S
C3740      C3741   1.414       .  A
C3740      F3756   1.358       .  S
C3741      C3742   1.412       .  A
C3742      F3745   1.357       .  S
C3743      C3746   1.406       .  A
C3743      C3750   1.404       .  A
C3746      C3747   1.407       .  A
C3746      F3751   1.357       .  S
C3747      C3748   1.410       .  A
C3747      F3753   1.358       .  S
C3748      C3749   1.408       .  A
C3749      C3750   1.396       .  A
C3749      F3752   1.358       .  S
C3750      F3754   1.358       .  S
C3757      C3758   1.407       .  A
C3757      C3762   1.402       .  A
C3757      F3775   1.358       .  S
C3758      C3763   1.486       .  S
C3758      C3759   1.407       .  A
C3759      C3760   1.402       .  A
C3759      F3764   1.358       .  S
C3760      C3761   1.405       .  A
C3760      F3776   1.358       .  S
C3761      C3762   1.405       .  A
C3762      F3765   1.358       .  S
C3763      C3766   1.407       .  A
C3763      C3770   1.404       .  A
C3766      C3767   1.406       .  A
C3766      F3771   1.357       .  S
C3767      C3768   1.408       .  A
C3767      F3773   1.357       .  S
C3768      C3769   1.409       .  A
C3769      C3770   1.398       .  A
C3769      F3772   1.359       .  S
C3770      F3774   1.358       .  S
C3777      C3778   1.403       .  A
C3777      C3782   1.398       .  A
C3777      F3795   1.358       .  S
C3778      C3783   1.486       .  S
C3778      C3779   1.407       .  A
C3779      C3780   1.406       .  A
C3779      F3784   1.357       .  S
C3780      C3781   1.409       .  A
C3780      F3796   1.357       .  S
C3781      C3782   1.412       .  A
C3782      F3785   1.359       .  S
C3783      C3786   1.404       .  A
C3783      C3790   1.407       .  A
C3786      C3787   1.398       .  A
C3786      F3791   1.358       .  S
C3787      C3788   1.411       .  A
C3787      F3793   1.359       .  S
C3788      C3789   1.409       .  A
C3789      C3790   1.406       .  A
C3789      F3792   1.357       .  S
C3790      F3794   1.357       .  S
C3797      C3798   1.405       .  A
C3797      C3802   1.398       .  A
C3797      F3815   1.358       .  S
C3798      C3803   1.482       .  S
C3798      C3799   1.407       .  A
C3799      C3800   1.399       .  A
C3799      F3804   1.358       .  S
C3800      C3801   1.407       .  A
C3800      F3816   1.358       .  S
C3801      C3802   1.407       .  A
C3802      F3805   1.358       .  S
C3803      C3806   1.406       .  A
C3803      C3810   1.402       .  A
C3806      C3807   1.405       .  A
C3806      F3811   1.357       .  S
C3807      C3808   1.412       .  A
C3807      F3813   1.357       .  S
C3808      C3809   1.415       .  A
C3809      C3810   1.392       .  A
C3809      F3812   1.358       .  S
C3810      F3814   1.359       .  S
C3817      C3818   1.401       .  A
C3817      C3822   1.396       .  A
C3817      F3835   1.358       .  S
C3818      C3823   1.475   1_556  S
C3818      C3819   1.404       .  A
C3819      C3820   1.402       .  A
C3819      F3824   1.357       .  S
C3820      C3821   1.409       .  A
C3820      F3836   1.358       .  S
C3821      C3822   1.409       .  A
C3822      F3825   1.358       .  S
C3823      C3826   1.402       .  A
C3823      C3830   1.404       .  A
C3826      C3827   1.396       .  A
C3826      F3831   1.358       .  S
C3827      C3828   1.407       .  A
C3827      F3833   1.358       .  S
C3828      C3829   1.407       .  A
C3829      C3830   1.403       .  A
C3829      F3832   1.358       .  S
C3830      F3834   1.357       .  S
C3837      C3838   1.405       .  A
C3837      C3842   1.405       .  A
C3837      F3855   1.358       .  S
C3838      C3843   1.479   1_455  S
C3838      C3839   1.402       .  A
C3839      C3840   1.398       .  A
C3839      F3844   1.358       .  S
C3840      C3841   1.409       .  A
C3840      F3856   1.358       .  S
C3841      C3842   1.410       .  A
C3842      F3845   1.358       .  S
C3843      C3846   1.404       .  A
C3843      C3850   1.402       .  A
C3846      C3847   1.403       .  A
C3846      F3851   1.357       .  S
C3847      C3848   1.410       .  A
C3847      F3853   1.358       .  S
C3848      C3849   1.411       .  A
C3849      C3850   1.399       .  A
C3849      F3852   1.358       .  S
C3850      F3854   1.358       .  S
C3857      C3858   1.406       .  A
C3857      C3862   1.395       .  A
C3857      F3875   1.358       .  S
C3858      C3863   1.485       .  S
C3858      C3859   1.409       .  A
C3859      C3860   1.403       .  A
C3859      F3864   1.357       .  S
C3860      C3861   1.405       .  A
C3860      F3876   1.358       .  S
C3861      C3862   1.406       .  A
C3862      F3865   1.359       .  S
C3863      C3866   1.406       .  A
C3863      C3870   1.406       .  A
C3866      C3867   1.399       .  A
C3866      F3871   1.358       .  S
C3867      C3868   1.407       .  A
C3867      F3873   1.358       .  S
C3868      C3869   1.411       .  A
C3869      C3870   1.401       .  A
C3869      F3872   1.358       .  S
C3870      F3874   1.358       .  S
C3877      C3878   1.404       .  A
C3877      C3882   1.396       .  A
C3877      F3895   1.358       .  S
C3878      C3883   1.478       .  S
C3878      C3879   1.405       .  A
C3879      C3880   1.398       .  A
C3879      F3884   1.358       .  S
C3880      C3881   1.408       .  A
C3880      F3896   1.358       .  S
C3881      C3882   1.408       .  A
C3882      F3885   1.357       .  S
C3883      C3886   1.405       .  A
C3883      C3890   1.408       .  A
C3886      C3887   1.391       .  A
C3886      F3891   1.358       .  S
C3887      C3888   1.403       .  A
C3887      F3893   1.359       .  S
C3888      C3889   1.404       .  A
C3889      C3890   1.402       .  A
C3889      F3892   1.358       .  S
C3890      F3894   1.357       .  S
C3897      C3898   1.404       .  A
C3897      C3902   1.398       .  A
C3897      F3915   1.358       .  S
C3898      C3903   1.485       .  S
C3898      C3899   1.407       .  A
C3899      C3900   1.404       .  A
C3899      F3904   1.358       .  S
C3900      C3901   1.409       .  A
C3900      F3916   1.357       .  S
C3901      C3902   1.411       .  A
C3902      F3905   1.359       .  S
C3903      C3906   1.404       .  A
C3903      C3910   1.409       .  A
C3906      C3907   1.396       .  A
C3906      F3911   1.358       .  S
C3907      C3908   1.407       .  A
C3907      F3913   1.358       .  S
C3908      C3909   1.406       .  A
C3909      C3910   1.405       .  A
C3909      F3912   1.358       .  S
C3910      F3914   1.358       .  S
C3917      C3918   1.408       .  A
C3917      C3922   1.394       .  A
C3917      F3935   1.358       .  S
C3918      C3923   1.489       .  S
C3918      C3919   1.410       .  A
C3919      C3920   1.405       .  A
C3919      F3924   1.358       .  S
C3920      C3921   1.407       .  A
C3920      F3936   1.358       .  S
C3921      C3922   1.404       .  A
C3922      F3925   1.358       .  S
C3923      C3926   1.411       .  A
C3923      C3930   1.407       .  A
C3926      C3927   1.403       .  A
C3926      F3931   1.358       .  S
C3927      C3928   1.403       .  A
C3927      F3933   1.357       .  S
C3928      C3929   1.406       .  A
C3929      C3930   1.397       .  A
C3929      F3932   1.358       .  S
C3930      F3934   1.358       .  S
