geometry optimzed in LAMMPS
_audit_creation_date              2020-11-30 
_audit_creation_method            'lammps2cif' 
_symmetry_space_group_name_H-M    'P1' 
_symmetry_Int_Tables_number       1 
_symmetry_cell_setting            triclinic 
loop_ 
_symmetry_equiv_pos_as_xyz 
  x,y,z 
_cell_length_a                    45.9923245 
_cell_length_b                    45.957340740968 
_cell_length_c                    46.05718100215964 
_cell_angle_alpha                 90.1233292188757 
_cell_angle_beta                  89.99065477993634 
_cell_angle_gamma                 89.78525928301093 
loop_ 
_atom_site_label 
_atom_site_type_symbol 
_atom_site_fract_x 
_atom_site_fract_y 
_atom_site_fract_z 
_atom_site_charge 
Fe1        Fe  0.83715202  0.31119952  0.83546866     1.65800
Fe2        Fe  0.88752057  0.28871352  0.88375412     1.73200
Fe3        Fe  0.87612810  0.36187313  0.87256565     1.54400
O4          O  0.88151814  0.37177547  0.82847092    -0.80500
O5          O  0.88772807  0.30995678  0.92311718    -0.78800
O6          O  0.84799918  0.34409085  0.80740691    -0.83000
O7          O  0.80707441  0.33625851  0.85630902    -0.77900
O8          O  0.92115237  0.35426392  0.87383681    -0.79700
O9          O  0.84994784  0.26779841  0.89664896    -0.82400
C10         C  0.80809704  0.36129678  0.86770074     0.98300
C11         C  0.86739220  0.36347848  0.80622875     1.05800
O12         O  0.86690398  0.32071227  0.86417561    -1.11400
O13         O  0.89065637  0.26292830  0.84671645    -0.73800
O14         O  0.86501150  0.28522248  0.81239200    -0.77300
O15         O  0.83192341  0.37471808  0.87242029    -0.78000
C16         C  0.88265014  0.26561947  0.82046765     0.97300
O17         O  0.82143303  0.27662158  0.85873113    -0.76000
O18         O  0.92674417  0.30611511  0.87305541    -0.81200
C19         C  0.88052575  0.33455797  0.93344689     0.99900
C20         C  0.93712064  0.33162287  0.87196373     1.05800
O21         O  0.87266071  0.35578827  0.91744785    -0.76800
C22         C  0.82673883  0.26372262  0.88243613     1.04100
Fe23       Fe  0.69665386  0.16133043  0.83570489     1.65800
Fe24       Fe  0.71869874  0.11297537  0.88690321     1.73200
Fe25       Fe  0.64510735  0.12455718  0.87450815     1.54400
O26         O  0.63346253  0.16874465  0.87608065    -0.80500
O27         O  0.69907645  0.07315452  0.88204349    -0.78800
O28         O  0.66774028  0.19148663  0.85067062    -0.83000
O29         O  0.66797095  0.14446418  0.80644526    -0.77900
O30         O  0.65146864  0.12715138  0.91929630    -0.79700
O31         O  0.74287381  0.10335235  0.85008609    -0.82400
C32         C  0.64515868  0.12925107  0.80708674     0.98300
C33         C  0.64505886  0.19175837  0.86610828     1.05800
O34         O  0.68675655  0.13287083  0.86576308    -1.11400
O35         O  0.74255166  0.15064482  0.89464366    -0.73800
O36         O  0.72681197  0.18152882  0.86107123    -0.77300
O37         O  0.63347358  0.12073236  0.83061415    -0.78000
C38         C  0.74271720  0.17547522  0.88264222     0.97300
O39         O  0.72705014  0.13497595  0.81721182    -0.76000
O40         O  0.69893355  0.12004134  0.92602979    -0.81200
C41         C  0.67387393  0.06312284  0.87712049     0.99900
C42         C  0.67368687  0.12543671  0.93567559     1.05800
O43         O  0.65167219  0.07952351  0.87430868    -0.76800
C44         C  0.74320458  0.11401662  0.82473370     1.04100
Fe45       Fe  0.83857063  0.16107011  0.69029540     1.65800
Fe46       Fe  0.88984159  0.11350640  0.71373156     1.73200
Fe47       Fe  0.87638152  0.12093096  0.64040556     1.54400
O48         O  0.83218886  0.11968737  0.62865237    -0.80500
O49         O  0.92869086  0.12275727  0.69454863    -0.78800
O50         O  0.80829773  0.14109323  0.66506400    -0.83000
O51         O  0.85109443  0.18842072  0.65767261    -0.77900
O52         O  0.87359598  0.07636713  0.64907747    -0.79700
O53         O  0.89436961  0.15163611  0.73757546    -0.82400
C54         C  0.86854636  0.18781222  0.63647692     0.98300
C55         C  0.80872257  0.12704792  0.64147024     1.05800
O56         O  0.86825129  0.13170882  0.68139755    -1.11400
O57         O  0.85292108  0.10242379  0.73644714    -0.73800
O58         O  0.82205937  0.13778388  0.72433234    -0.77300
O59         O  0.88064548  0.16450198  0.62752364    -0.78000
C60         C  0.82869027  0.11535485  0.73887373     0.97300
O61         O  0.86557955  0.18432577  0.71666594    -0.76000
O62         O  0.88846426  0.07286535  0.69492205    -0.81200
C63         C  0.93798434  0.12344372  0.66866624     0.99900
C64         C  0.88078545  0.06126092  0.67111878     1.05800
O65         O  0.92140439  0.12069195  0.64668878    -0.76800
C66         C  0.88463476  0.17739800  0.73518605     1.04100
Fe67       Fe  0.66288044  0.34119060  0.80293665     1.65800
Fe68       Fe  0.61211860  0.38982601  0.78086883     1.73200
Fe69       Fe  0.62264786  0.37721116  0.85417052     1.54400
O70         O  0.61922980  0.33308423  0.86422482    -0.80500
O71         O  0.61363969  0.42889833  0.80229279    -0.78800
O72         O  0.65075094  0.31194614  0.83414872    -0.83000
O73         O  0.69207259  0.36103520  0.82962210    -0.77900
O74         O  0.57766375  0.37688321  0.84648676    -0.79700
O75         O  0.64961381  0.40158096  0.75878011    -0.82400
C76         C  0.69065804  0.37361644  0.85403831     0.98300
C77         C  0.63264837  0.31082176  0.85474929     1.05800
O78         O  0.63250127  0.36956169  0.81274008    -1.11400
O79         O  0.60762603  0.35287116  0.75532841    -0.73800
O80         O  0.63619077  0.31905108  0.77508407    -0.77300
O81         O  0.66666612  0.37892888  0.86698987    -0.78000
C82         C  0.61714633  0.32695148  0.75682058     0.97300
O83         O  0.67993484  0.36560012  0.76991092    -0.76000
O84         O  0.57230619  0.38077261  0.79855997    -0.81200
C85         C  0.61846186  0.43855916  0.82765507     0.99900
C86         C  0.56179501  0.37742078  0.82378317     1.05800
O87         O  0.62406971  0.42208928  0.84907964    -0.76800
C88         C  0.67361878  0.38829562  0.75572425     1.04100
Fe89       Fe  0.80568017  0.33686647  0.65782255     1.65800
Fe90       Fe  0.78403276  0.38527435  0.60646093     1.73200
Fe91       Fe  0.85755550  0.37387991  0.61953517     1.54400
O92         O  0.86914071  0.37703415  0.66360810    -0.80500
O93         O  0.80378531  0.37744514  0.56719907    -0.78800
O94         O  0.83404594  0.35389656  0.68741297    -0.83000
O95         O  0.83494359  0.30677565  0.64265842    -0.77900
O96         O  0.85093671  0.41876162  0.62056969    -0.79700
O97         O  0.75979714  0.34807595  0.59932110    -0.82400
C98         C  0.85735542  0.30653495  0.62672781     0.98300
C99         C  0.85698286  0.36894168  0.68705757     1.05800
O100        O  0.81580262  0.36542295  0.62787909    -1.11400
O101        O  0.75990719  0.39538345  0.64337239    -0.73800
O102        O  0.77478926  0.36328603  0.67631856    -0.77300
O103        O  0.86894494  0.32964516  0.61694122    -0.78000
C104        C  0.75896209  0.38454798  0.66868739     0.97300
O105        O  0.77563989  0.31649805  0.63224024    -0.76000
O106        O  0.80380689  0.42495194  0.61084890    -0.81200
C107        C  0.82947815  0.37342627  0.55798970     0.99900
C108        C  0.82876026  0.43496185  0.61685393     1.05800
O109        O  0.85150667  0.37256288  0.57467523    -0.76800
C110        C  0.75938145  0.32320550  0.61111562     1.04100
Fe111      Fe  0.66066391  0.19161921  0.66023420     1.65800
Fe112      Fe  0.61087471  0.21317010  0.61014942     1.73200
Fe113      Fe  0.62312430  0.13970520  0.62219471     1.54400
O114        O  0.66726659  0.12813153  0.61997998    -0.80500
O115        O  0.57133707  0.19399126  0.61746769    -0.78800
O116        O  0.69070362  0.16327916  0.64376067    -0.83000
O117        O  0.64570230  0.16207596  0.68954988    -0.77900
O118        O  0.62444239  0.14577301  0.57726710    -0.79700
O119        O  0.60371032  0.23836866  0.64689944    -0.82400
C120        C  0.63041408  0.13931546  0.68932217     0.98300
C121        C  0.69053360  0.14007185  0.62898865     1.05800
O122        O  0.63151630  0.18142756  0.63079132    -1.11400
O123        O  0.64821578  0.23624797  0.60050425    -0.73800
O124        O  0.67944867  0.22273039  0.63483638    -0.77300
O125        O  0.62041319  0.12809533  0.66612667    -0.78000
C126        C  0.67284141  0.23770559  0.61276269     0.97300
O127        O  0.63429459  0.22141620  0.68025429    -0.76000
O128        O  0.61549832  0.19297322  0.57061288    -0.81200
C129        C  0.56171897  0.16853885  0.62191845     0.99900
C130        C  0.62112267  0.16776765  0.56085140     1.05800
O131        O  0.57822154  0.14627437  0.62327143    -0.76800
C132        C  0.61427838  0.23858668  0.67232411     1.04100
Fe133      Fe  0.16139356  0.16318871  0.68779096     1.65800
Fe134      Fe  0.11228850  0.11382621  0.71139049     1.73200
Fe135      Fe  0.12373642  0.12298312  0.63792792     1.54400
O136        O  0.11845086  0.16658161  0.62585889    -0.80500
O137        O  0.11281086  0.07355563  0.69123008    -0.78800
O138        O  0.14747110  0.19093786  0.65587652    -0.83000
O139        O  0.19169399  0.14381464  0.66175963    -0.77900
O140        O  0.07896136  0.12256019  0.64526075    -0.79700
O141        O  0.15043658  0.10272704  0.73275471    -0.82400
C142        C  0.19129011  0.12895351  0.63862099     0.98300
C143        C  0.12949425  0.19013344  0.63514124     1.05800
O144        O  0.13253020  0.13312816  0.67896001    -1.11400
O145        O  0.10811951  0.15118490  0.73675056    -0.73800
O146        O  0.13402256  0.18550337  0.71502035    -0.77300
O147        O  0.16784806  0.12158565  0.62585364    -0.78000
C148        C  0.11640693  0.17739893  0.73446518     0.97300
O149        O  0.17920327  0.13996502  0.72147122    -0.76000
O150        O  0.07269234  0.12349016  0.69339346    -0.81200
C151        C  0.11931362  0.06267655  0.66668036     0.99900
C152        C  0.06283326  0.12459592  0.66767274     1.05800
O153        O  0.12666953  0.07829942  0.64515878    -0.76800
C154        C  0.17386371  0.11699253  0.73565010     1.04100
Fe155      Fe  0.31161562  0.16146196  0.83320592     1.65800
Fe156      Fe  0.28527781  0.11505155  0.88410946     1.73200
Fe157      Fe  0.35956406  0.12234179  0.87505600     1.54400
O158        O  0.37285492  0.11700829  0.83173984    -0.80500
O159        O  0.30406120  0.11949786  0.92432085    -0.78800
O160        O  0.34104787  0.14270298  0.80571564    -0.83000
O161        O  0.34112622  0.19024340  0.84957140    -0.77900
O162        O  0.35053953  0.07764787  0.87516098    -0.79700
O163        O  0.26426266  0.15438429  0.89146425    -0.82400
C164        C  0.36286143  0.18958216  0.86633889     0.98300
C165        C  0.36276064  0.12588615  0.80759378     1.05800
O166        O  0.31886627  0.13289730  0.86417544    -1.11400
O167        O  0.26113925  0.10825188  0.84666919    -0.73800
O168        O  0.28070303  0.13662893  0.81298735    -0.77300
O169        O  0.37306989  0.16604397  0.87687103    -0.78000
C170        C  0.26215390  0.11801693  0.82096074     0.97300
O171        O  0.28080560  0.18358991  0.85674476    -0.76000
O172        O  0.30231974  0.07390178  0.87883773    -0.81200
C173        C  0.32896673  0.12396876  0.93518847     0.99900
C174        C  0.32736019  0.06249757  0.87598676     1.05800
O175        O  0.35169990  0.12575319  0.91957923    -0.76800
C176        C  0.26449950  0.17864563  0.87833352     1.04100
Fe177      Fe  0.16137753  0.31345550  0.83267756     1.65800
Fe178      Fe  0.11414750  0.28834299  0.88332385     1.73200
Fe179      Fe  0.12305734  0.36244299  0.87405257     1.54400
O180        O  0.16676787  0.37409321  0.87814257    -0.80500
O181        O  0.07379508  0.30748704  0.88004983    -0.78800
O182        O  0.18975057  0.34450477  0.84726776    -0.83000
O183        O  0.14161648  0.34108827  0.80443747    -0.77900
O184        O  0.12361435  0.35424976  0.91889496    -0.79700
O185        O  0.10462326  0.26557552  0.84569750    -0.82400
C186        C  0.12703726  0.36434616  0.80619978     0.98300
C187        C  0.18973373  0.36495862  0.86569535     1.05800
O188        O  0.13279951  0.32144831  0.86342411    -1.11400
O189        O  0.15260236  0.26508050  0.88872479    -0.73800
O190        O  0.18403017  0.28431070  0.85751611    -0.77300
O191        O  0.12041879  0.37623247  0.83037902    -0.78000
C192        C  0.17778366  0.26647334  0.87747012     0.97300
O193        O  0.13724619  0.28107093  0.81375727    -0.76000
O194        O  0.12107926  0.30616877  0.92345986    -0.81200
C195        C  0.06302114  0.33234712  0.87458371     0.99900
C196        C  0.12357544  0.33132438  0.93442265     1.05800
O197        O  0.07855917  0.35500824  0.87163136    -0.76800
C198        C  0.11630111  0.26475995  0.82079801     1.04100
Fe199      Fe  0.33499578  0.33481692  0.80816377     1.65800
Fe200      Fe  0.38374028  0.38310839  0.78135367     1.73200
Fe201      Fe  0.37542424  0.37585772  0.85548643     1.54400
O202        O  0.33185494  0.38063168  0.86825161    -0.80500
O203        O  0.42434821  0.38025808  0.79976143    -0.78800
O204        O  0.30719316  0.35156068  0.83842742    -0.83000
O205        O  0.35361047  0.30655700  0.83651954    -0.77900
O206        O  0.37477028  0.42051445  0.84618215    -0.79700
O207        O  0.39272930  0.34438793  0.76062033    -0.82400
C208        C  0.36969777  0.30806884  0.85865696     0.98300
C209        C  0.30819717  0.36981257  0.85893345     1.05800
O210        O  0.36480815  0.36464367  0.81507186    -1.11400
O211        O  0.34547808  0.38860132  0.75799943    -0.73800
O212        O  0.31298839  0.35952499  0.77855378    -0.77300
O213        O  0.37825059  0.33216419  0.86944711    -0.78000
C214        C  0.31988856  0.37857630  0.76004913     0.97300
O215        O  0.35871756  0.31417561  0.77665259    -0.76000
O216        O  0.37732303  0.42369590  0.79808774    -0.81200
C217        C  0.43545324  0.37603604  0.82460943     0.99900
C218        C  0.37521921  0.43544940  0.82288957     1.05800
O219        O  0.42004578  0.37346764  0.84741102    -0.76800
C220        C  0.38042678  0.31981140  0.76078299     1.04100
Fe221      Fe  0.18321574  0.33512518  0.66217791     1.65800
Fe222      Fe  0.21008776  0.38132964  0.61144074     1.73200
Fe223      Fe  0.13576337  0.37580453  0.62123180     1.54400
O224        O  0.12202791  0.33224582  0.61810011    -0.80500
O225        O  0.19285531  0.42258194  0.61417903    -0.78800
O226        O  0.15369835  0.30709842  0.64499723    -0.83000
O227        O  0.15382934  0.35347502  0.68991824    -0.77900
O228        O  0.14354662  0.37375772  0.57663053    -0.79700
O229        O  0.23263347  0.38993710  0.64945059    -0.82400
C230        C  0.13238258  0.37061527  0.68856236     0.98300
C231        C  0.13220009  0.30838356  0.62796944     1.05800
O232        O  0.17632320  0.36414406  0.63155309    -1.11400
O233        O  0.23253676  0.34234916  0.60615635    -0.73800
O234        O  0.21421349  0.31254774  0.63927726    -0.77300
O235        O  0.12244972  0.38027925  0.66467007    -0.78000
C236        C  0.23193991  0.31797637  0.61902842     0.97300
O237        O  0.21398587  0.35991110  0.68239218    -0.76000
O238        O  0.19169025  0.37465112  0.57132681    -0.81200
C239        C  0.16854655  0.43483628  0.61893692     0.99900
C240        C  0.16623663  0.37276945  0.56085031     1.05800
O241        O  0.14528456  0.42028565  0.62240081    -0.76800
C242        C  0.23165231  0.37961377  0.67498378     1.04100
Fe243      Fe  0.33773634  0.18309448  0.66472318     1.65800
Fe244      Fe  0.38474919  0.20920806  0.61494853     1.73200
Fe245      Fe  0.37637682  0.13533246  0.62302489     1.54400
O246        O  0.37700187  0.12062138  0.66652683    -0.80500
O247        O  0.37580203  0.19270559  0.57478147    -0.78800
O248        O  0.36002963  0.15763106  0.69306769    -0.83000
O249        O  0.31095028  0.14971017  0.65236576    -0.77900
O250        O  0.42076810  0.14279162  0.62720348    -0.79700
O251        O  0.34624981  0.23336759  0.61242721    -0.82400
C252        C  0.31026547  0.13162198  0.63165496     0.98300
C253        C  0.37254203  0.13321994  0.69087594     1.05800
O254        O  0.36640021  0.17583625  0.63412740    -1.11400
O255        O  0.39623565  0.22954190  0.65305360    -0.73800
O256        O  0.35979956  0.21747834  0.68217938    -0.77300
O257        O  0.33266893  0.12465108  0.61702026    -0.78000
C258        C  0.38254359  0.23183234  0.67674080     0.97300
O259        O  0.31324310  0.21001606  0.63889202    -0.76000
O260        O  0.42519753  0.18973385  0.61569933    -0.81200
C261        C  0.37564251  0.16761949  0.56333855     0.99900
C262        C  0.43614915  0.16526449  0.62253724     1.05800
O263        O  0.37769037  0.14449332  0.57843866    -0.76800
C264        C  0.32033275  0.23026607  0.62165583     1.04100
Fe265      Fe  0.30683999  0.83791433  0.83281973     1.65800
Fe266      Fe  0.28268896  0.88474607  0.88461419     1.73200
Fe267      Fe  0.35654190  0.87499769  0.87410172     1.54400
O268        O  0.36849766  0.83058474  0.87511256    -0.80500
O269        O  0.30065858  0.92528836  0.87902711    -0.78800
O270        O  0.33358365  0.80743886  0.85059517    -0.83000
O271        O  0.33824510  0.85318496  0.80554943    -0.77900
O272        O  0.34939077  0.87193244  0.91867044    -0.79700
O273        O  0.25854785  0.89210346  0.84727755    -0.82400
C274        C  0.35970853  0.87015606  0.80692918     0.98300
C275        C  0.35617277  0.80735054  0.86622904     1.05800
O276        O  0.31544298  0.86594064  0.86395360    -1.11400
O277        O  0.26080513  0.84611357  0.89252977    -0.73800
O278        O  0.27376881  0.81831047  0.85517349    -0.77300
O279        O  0.36930514  0.88023992  0.83075881    -0.78000
C280        C  0.25901060  0.82273223  0.87795992     0.97300
O281        O  0.27885656  0.86565760  0.81217151    -0.76000
O282        O  0.30200154  0.87992766  0.92461821    -0.81200
C283        C  0.32594362  0.93587421  0.87588313     0.99900
C284        C  0.32711283  0.87475374  0.93479077     1.05800
O285        O  0.34874004  0.91999461  0.87473278    -0.76800
C286        C  0.26032756  0.88411815  0.82093364     1.04100
Fe287      Fe  0.15959295  0.68655755  0.83564631     1.65800
Fe288      Fe  0.11123217  0.71117839  0.88572912     1.73200
Fe289      Fe  0.12132682  0.63691776  0.87543451     1.54400
O290        O  0.11769947  0.62402937  0.83188474    -0.80500
O291        O  0.11394955  0.69141648  0.92582656    -0.78800
O292        O  0.14277743  0.65714409  0.80725527    -0.83000
O293        O  0.18880130  0.65757347  0.85207330    -0.77900
O294        O  0.07669582  0.64488409  0.87468622    -0.79700
O295        O  0.14978427  0.73308926  0.89478985    -0.82400
C296        C  0.18845092  0.63510956  0.86779846     0.98300
C297        C  0.12702101  0.63475789  0.80824071     1.05800
O298        O  0.13068853  0.67817223  0.86577175    -1.11400
O299        O  0.10518088  0.73626245  0.84844330    -0.73800
O300        O  0.13447076  0.71682609  0.81534325    -0.77300
O301        O  0.16513218  0.62415143  0.87778741    -0.78000
C302        C  0.11559027  0.73534511  0.82291403     0.97300
O303        O  0.17970687  0.71766862  0.85998127    -0.76000
O304        O  0.07103880  0.69304502  0.87861762    -0.81200
C305        C  0.11843215  0.66614485  0.93602362     0.99900
C306        C  0.06076421  0.66760437  0.87535082     1.05800
O307        O  0.12299271  0.64407444  0.91998953    -0.76800
C308        C  0.17410237  0.73370819  0.88165861     1.04100
Fe309      Fe  0.16299703  0.83971801  0.68970239     1.65800
Fe310      Fe  0.11174845  0.88686981  0.71330648     1.73200
Fe311      Fe  0.12129867  0.87505820  0.64039686     1.54400
O312        O  0.16507579  0.87481420  0.62598966    -0.80500
O313        O  0.07200111  0.87454901  0.69749935    -0.78800
O314        O  0.19160148  0.86207645  0.66452458    -0.83000
O315        O  0.15282001  0.81145989  0.65652010    -0.77900
O316        O  0.12496663  0.92004568  0.64586643    -0.79700
O317        O  0.11116561  0.84982369  0.73957440    -0.82400
C318        C  0.13157878  0.80897612  0.63926922     0.98300
C319        C  0.18944089  0.87219610  0.63910965     1.05800
O320        O  0.13198534  0.86745683  0.68108180    -1.11400
O321        O  0.14974495  0.90113253  0.73251445    -0.73800
O322        O  0.17858108  0.86309324  0.72416854    -0.77300
O323        O  0.11573492  0.83053174  0.63205449    -0.78000
C324        C  0.17312182  0.88706374  0.73659355     0.97300
O325        O  0.13638553  0.81571749  0.71604493    -0.76000
O326        O  0.10961241  0.92620597  0.69144893    -0.81200
C327        C  0.06110728  0.87394959  0.67220955     0.99900
C328        C  0.11698785  0.93636204  0.66684483     1.05800
O329        O  0.07656184  0.87665902  0.64937678    -0.76800
C330        C  0.11960715  0.82357428  0.73649637     1.04100
Fe331      Fe  0.33467527  0.65920172  0.80301177     1.65800
Fe332      Fe  0.38839333  0.61383665  0.78042368     1.73200
Fe333      Fe  0.37424308  0.62189306  0.85338961     1.54400
O334        O  0.37848182  0.66571417  0.86462013    -0.80500
O335        O  0.38790370  0.57362415  0.80004450    -0.78800
O336        O  0.34590715  0.68741635  0.83591214    -0.83000
O337        O  0.30516855  0.63787099  0.82807829    -0.77900
O338        O  0.41948100  0.62117328  0.84731148    -0.79700
O339        O  0.35222062  0.60110745  0.75702857    -0.82400
C340        C  0.30626758  0.62578411  0.85264864     0.98300
C341        C  0.36464737  0.68813773  0.85608434     1.05800
O342        O  0.36575730  0.63155932  0.81227872    -1.11400
O343        O  0.39153729  0.65173064  0.75632046    -0.73800
O344        O  0.36081694  0.68336133  0.77649409    -0.77300
O345        O  0.33012098  0.62096802  0.86591142    -0.78000
C346        C  0.38044038  0.67697529  0.75827183     0.97300
O347        O  0.31939444  0.63486748  0.76879362    -0.76000
O348        O  0.42694880  0.62481606  0.79969924    -0.81200
C349        C  0.37864818  0.56222736  0.82336816     0.99900
C350        C  0.43623682  0.62475702  0.82558670     1.05800
O351        O  0.37105449  0.57745243  0.84524311    -0.76800
C352        C  0.32747805  0.61295443  0.75406822     1.04100
Fe353      Fe  0.33540952  0.81423756  0.66178548     1.65800
Fe354      Fe  0.38277025  0.78917027  0.61112617     1.73200
Fe355      Fe  0.37499582  0.86319985  0.62209426     1.54400
O356        O  0.33088704  0.87658682  0.62070262    -0.80500
O357        O  0.42340653  0.80634499  0.61627329    -0.78800
O358        O  0.30608637  0.84131609  0.64284495    -0.83000
O359        O  0.35031196  0.84559769  0.68938950    -0.77900
O360        O  0.37183650  0.85638541  0.57745193    -0.79700
O361        O  0.38943184  0.76524984  0.64873582    -0.82400
C362        C  0.36854588  0.86603513  0.68896402     0.98300
C363        C  0.30705766  0.86435339  0.62796126     1.05800
O364        O  0.36450191  0.82226035  0.63159841    -1.11400
O365        O  0.34447162  0.76730411  0.60316591    -0.73800
O366        O  0.31577143  0.78117880  0.63940680    -0.77300
O367        O  0.38031612  0.87504413  0.66571890    -0.78000
C368        C  0.32100094  0.76558611  0.61737429     0.97300
O369        O  0.36202510  0.78570438  0.68314117    -0.76000
O370        O  0.37786567  0.80862265  0.57120091    -0.81200
C371        C  0.43500289  0.83116687  0.61903043     0.99900
C372        C  0.37345781  0.83399307  0.56124334     1.05800
O373        O  0.41992419  0.85441388  0.62143518    -0.76800
C374        C  0.38035586  0.76683476  0.67476251     1.04100
Fe375      Fe  0.19204959  0.65765531  0.66314103     1.65800
Fe376      Fe  0.21410424  0.61301443  0.60906717     1.73200
Fe377      Fe  0.14154301  0.62193107  0.62349534     1.54400
O378        O  0.12898576  0.62253209  0.66762170    -0.80500
O379        O  0.19497990  0.62553091  0.57090440    -0.78800
O380        O  0.16889998  0.63396381  0.69241545    -0.83000
O381        O  0.15747186  0.68533700  0.65467328    -0.77900
O382        O  0.14900219  0.57735624  0.62743375    -0.79700
O383        O  0.23880101  0.65093387  0.60746152    -0.82400
C384        C  0.13958019  0.68774139  0.63385114     0.98300
C385        C  0.14318147  0.62446258  0.69134085     1.05800
O386        O  0.18262000  0.63065871  0.63189525    -1.11400
O387        O  0.23703950  0.59877361  0.64493858    -0.73800
O388        O  0.22793955  0.63448146  0.67637660    -0.77300
O389        O  0.13216984  0.66618713  0.61813919    -0.78000
C390        C  0.24157662  0.61169934  0.66881373     0.97300
O391        O  0.21658271  0.68306054  0.63626178    -0.76000
O392        O  0.19348929  0.57298934  0.60838492    -0.81200
C393        C  0.16907449  0.62401546  0.56168842     0.99900
C394        C  0.17027787  0.56185490  0.61849383     1.05800
O395        O  0.14756596  0.61961333  0.57848057    -0.76800
C396        C  0.23595425  0.67650343  0.61777291     1.04100
Fe397      Fe  0.83291253  0.83671281  0.69039796     1.65800
Fe398      Fe  0.88486288  0.88264300  0.71566949     1.73200
Fe399      Fe  0.87446390  0.87439162  0.64197846     1.54400
O400        O  0.87875250  0.83036111  0.63067624    -0.80500
O401        O  0.88412364  0.92313907  0.69663621    -0.78800
O402        O  0.84636066  0.80809703  0.65888613    -0.83000
O403        O  0.80447490  0.85725702  0.66343487    -0.77900
O404        O  0.91925881  0.87400872  0.65008215    -0.79700
O405        O  0.84734926  0.89426450  0.73764813    -0.82400
C406        C  0.80652967  0.87061026  0.63960654     0.98300
C407        C  0.86561782  0.80761619  0.63927512     1.05800
O408        O  0.86407296  0.86473488  0.68264524    -1.11400
O409        O  0.88867725  0.84419482  0.73892831    -0.73800
O410        O  0.85790194  0.81313700  0.71851400    -0.77300
O411        O  0.83087887  0.87654264  0.62783889    -0.78000
C412        C  0.87778290  0.81896913  0.73656451     0.97300
O413        O  0.81531815  0.86118582  0.72314106    -0.76000
O414        O  0.92469818  0.87331456  0.69808502    -0.81200
C415        C  0.87826119  0.93445287  0.67217244     0.99900
C416        C  0.93513614  0.87218936  0.67266222     1.05800
O417        O  0.87214475  0.91917487  0.64986621    -0.76800
C418        C  0.82237621  0.88278267  0.73866905     1.04100
Fe419      Fe  0.83403288  0.68458168  0.83713192     1.65800
Fe420      Fe  0.88450312  0.70946616  0.88475601     1.73200
Fe421      Fe  0.87480902  0.63529979  0.87559408     1.54400
O422        O  0.83113824  0.62243287  0.87939726    -0.80500
O423        O  0.92443346  0.69053700  0.87976274    -0.78800
O424        O  0.80581799  0.65620376  0.85551342    -0.83000
O425        O  0.84971922  0.65449080  0.80840417    -0.77900
O426        O  0.87402652  0.64338892  0.92010477    -0.79700
O427        O  0.89210385  0.73127395  0.84612449    -0.82400
C428        C  0.86677596  0.63288359  0.80869263     0.98300
C429        C  0.80720789  0.63370154  0.87110825     1.05800
O430        O  0.86449293  0.67639923  0.86592119    -1.11400
O431        O  0.84726621  0.73372577  0.89222517    -0.73800
O432        O  0.81428425  0.71624343  0.86166414    -0.77300
O433        O  0.87760007  0.62257753  0.83192837    -0.78000
C434        C  0.82196248  0.73379206  0.88139019     0.97300
O435        O  0.85874270  0.71431340  0.81556284    -0.76000
O436        O  0.87911278  0.69144523  0.92523287    -0.81200
C437        C  0.93509860  0.66550329  0.87532097     0.99900
C438        C  0.87545095  0.66619802  0.93576427     1.05800
O439        O  0.91948070  0.64279502  0.87355658    -0.76800
C440        C  0.88000628  0.73072326  0.82135425     1.04100
Fe441      Fe  0.68998625  0.83663462  0.83687628     1.65800
Fe442      Fe  0.71304578  0.88556522  0.88670464     1.73200
Fe443      Fe  0.63954943  0.87682476  0.87431322     1.54400
O444        O  0.62735186  0.87702753  0.83017319    -0.80500
O445        O  0.69438722  0.87669770  0.92596200    -0.78800
O446        O  0.66381027  0.85532478  0.80656530    -0.83000
O447        O  0.65821500  0.80912198  0.85065216    -0.77900
O448        O  0.64728068  0.92144476  0.87044839    -0.79700
O449        O  0.73808402  0.84813220  0.89155193    -0.82400
C450        C  0.63709929  0.80980623  0.86818299     0.98300
C451        C  0.64010058  0.86925648  0.80680643     1.05800
O452        O  0.68076482  0.86644562  0.86596184    -1.11400
O453        O  0.73503090  0.89642122  0.84918178    -0.73800
O454        O  0.72317935  0.86027704  0.81924279    -0.77300
O455        O  0.62759238  0.83319619  0.87964758    -0.78000
C456        C  0.73734118  0.88310855  0.82516736     0.97300
O457        O  0.71747724  0.81441166  0.86384636    -0.76000
O458        O  0.69334747  0.92565497  0.88465878    -0.81200
C459        C  0.66857806  0.87601247  0.93562441     0.99900
C460        C  0.66945368  0.93680605  0.87650279     1.05800
O461        O  0.64633071  0.87817289  0.91926121    -0.76800
C462        C  0.73631146  0.82219618  0.88224664     1.04100
Fe463      Fe  0.80800624  0.65972779  0.66140248     1.65800
Fe464      Fe  0.78501756  0.61124025  0.61083955     1.73200
Fe465      Fe  0.85867188  0.62122902  0.62247266     1.54400
O466        O  0.87036752  0.66513787  0.61893363    -0.80500
O467        O  0.80454176  0.57118504  0.61392844    -0.78800
O468        O  0.83948379  0.68804412  0.64842150    -0.83000
O469        O  0.83439896  0.64021222  0.69115568    -0.77900
O470        O  0.85192255  0.62203443  0.57753643    -0.79700
O471        O  0.76183432  0.60101350  0.64827014    -0.82400
C472        C  0.85787771  0.62585025  0.69031690     0.98300
C473        C  0.86056473  0.68813981  0.63087254     1.05800
O474        O  0.81730654  0.63058383  0.63154486    -1.11400
O475        O  0.76111535  0.64902841  0.60498962    -0.73800
O476        O  0.78038445  0.68207520  0.63455990    -0.77300
O477        O  0.87055467  0.61887965  0.66664279    -0.78000
C478        C  0.76269010  0.67478310  0.61480094     0.97300
O479        O  0.77486920  0.63598541  0.67889655    -0.76000
O480        O  0.80393617  0.61922187  0.57124211    -0.81200
C481        C  0.82937690  0.56065941  0.61978257     0.99900
C482        C  0.82948140  0.62231577  0.56132593     1.05800
O483        O  0.85165005  0.57645374  0.62404051    -0.76800
C484        C  0.75985668  0.61385673  0.67261359     1.04100
Fe485      Fe  0.66270145  0.66143874  0.80689397     1.65800
Fe486      Fe  0.61172408  0.61360213  0.78378136     1.73200
Fe487      Fe  0.62247450  0.62448188  0.85730531     1.54400
O488        O  0.66607731  0.62231833  0.87054469    -0.80500
O489        O  0.57178280  0.62361572  0.80156075    -0.78800
O490        O  0.69165147  0.64231674  0.83468909    -0.83000
O491        O  0.64852725  0.69083191  0.83734407    -0.77900
O492        O  0.62441143  0.57976108  0.85118724    -0.79700
O493        O  0.60776675  0.65038997  0.75827972    -0.82400
C494        C  0.63054399  0.69124419  0.85812997     0.98300
C495        C  0.69010055  0.62859156  0.85840773     1.05800
O496        O  0.63228731  0.63306782  0.81603356    -1.11400
O497        O  0.64958649  0.60156169  0.76194065    -0.73800
O498        O  0.68072326  0.63619816  0.77482487    -0.77300
O499        O  0.61859065  0.66845598  0.86803913    -0.78000
C500        C  0.67416211  0.61394586  0.75997139     0.97300
O501        O  0.63724866  0.68340024  0.77756886    -0.76000
O502        O  0.61262309  0.57426473  0.80458933    -0.81200
C503        C  0.56166987  0.62569310  0.82715644     0.99900
C504        C  0.61811564  0.56388979  0.82949462     1.05800
O505        O  0.57771373  0.62474849  0.84965962    -0.76800
C506        C  0.61826476  0.67582419  0.75913778     1.04100
Fe507      Fe  0.66296970  0.80820904  0.65770322     1.65800
Fe508      Fe  0.61350585  0.78466744  0.60856271     1.73200
Fe509      Fe  0.62220234  0.85836838  0.62072585     1.54400
O510        O  0.62134826  0.87015174  0.66493099    -0.80500
O511        O  0.62119250  0.80358954  0.56905570    -0.78800
O512        O  0.64440542  0.83441104  0.68831090    -0.83000
O513        O  0.69035329  0.83993609  0.64349404    -0.77900
O514        O  0.57753772  0.85061945  0.62388339    -0.79700
O515        O  0.65119495  0.76038368  0.60250124    -0.82400
C516        C  0.68935427  0.86134740  0.62638992     0.98300
C517        C  0.62967856  0.85767222  0.68820481     1.05800
O518        O  0.63273907  0.81715420  0.62901126    -1.11400
O519        O  0.60389738  0.76198202  0.64622955    -0.73800
O520        O  0.63998293  0.77484396  0.67571493    -0.77300
O521        O  0.66572101  0.87097538  0.61567552    -0.78000
C522        C  0.61760225  0.75995399  0.67004926     0.97300
O523        O  0.68483160  0.78081091  0.63037969    -0.76000
O524        O  0.57324358  0.80405543  0.61154871    -0.81200
C525        C  0.62268568  0.82936750  0.55936184     0.99900
C526        C  0.56202308  0.82847626  0.61805741     1.05800
O527        O  0.62149999  0.85168808  0.57578754    -0.76800
C528        C  0.67715783  0.76229142  0.61158235     1.04100
Fe529      Fe  0.83825475  0.30945386  0.15695212     1.65800
Fe530      Fe  0.88831902  0.28661113  0.10893638     1.73200
Fe531      Fe  0.87674166  0.35945250  0.11971578     1.54400
O532        O  0.83250205  0.37214925  0.12103501    -0.80500
O533        O  0.92772793  0.30359285  0.12101193    -0.78800
O534        O  0.80804912  0.33240267  0.13421237    -0.83000
O535        O  0.84712471  0.34434622  0.18363543    -0.77900
O536        O  0.87195620  0.35311811  0.07526363    -0.79700
O537        O  0.88953960  0.26051237  0.14606020    -0.82400
C538        C  0.86770234  0.36245680  0.18532647     0.98300
C539        C  0.80885540  0.35791396  0.12399889     1.05800
O540        O  0.86781677  0.31859860  0.12826782    -1.11400
O541        O  0.85025501  0.26674383  0.09534932    -0.73800
O542        O  0.82397043  0.27312451  0.13538052    -0.77300
O543        O  0.88328325  0.36910039  0.16358183    -0.78000
C544        C  0.82811295  0.26137181  0.11083800     0.97300
O545        O  0.86704174  0.28546665  0.18097559    -0.76000
O546        O  0.88979136  0.30827464  0.06946633    -0.81200
C547        C  0.93774358  0.32929433  0.12053098     0.99900
C548        C  0.88107962  0.33249770  0.05917926     1.05800
O549        O  0.92160771  0.35167092  0.11706778    -0.76800
C550        C  0.88252611  0.26417180  0.17257155     1.04100
Fe551      Fe  0.80942603  0.33599432  0.33404544     1.65800
Fe552      Fe  0.78520966  0.38473157  0.38403937     1.73200
Fe553      Fe  0.85896146  0.37620059  0.37210238     1.54400
O554        O  0.87180675  0.33269351  0.37648719    -0.80500
O555        O  0.80400795  0.42546488  0.38151160    -0.78800
O556        O  0.84154541  0.30837302  0.34765918    -0.83000
O557        O  0.83531012  0.35539101  0.30405053    -0.77900
O558        O  0.85198863  0.37599229  0.41693338    -0.79700
O559        O  0.76285276  0.39496143  0.34649464    -0.82400
C560        C  0.85826469  0.37038605  0.30440783     0.98300
C561        C  0.86264355  0.30920251  0.36519041     1.05800
O562        O  0.81792861  0.36578914  0.36340497    -1.11400
O563        O  0.76141520  0.34661186  0.38927714    -0.73800
O564        O  0.78229330  0.31350975  0.36082243    -0.77300
O565        O  0.87088615  0.37807192  0.32785945    -0.78000
C566        C  0.76377885  0.32071673  0.37983731     0.97300
O567        O  0.77583103  0.35925870  0.31644207    -0.76000
O568        O  0.80388348  0.37632078  0.42356832    -0.81200
C569        C  0.82846422  0.43635540  0.37484626     0.99900
C570        C  0.82965086  0.37447066  0.43321470     1.05800
O571        O  0.85080926  0.42075849  0.36978025    -0.76800
C572        C  0.76097378  0.38172449  0.32241548     1.04100
Fe573      Fe  0.83806071  0.16280414  0.30777414     1.65800
Fe574      Fe  0.88780355  0.11398108  0.28309478     1.73200
Fe575      Fe  0.87816411  0.12371663  0.35684534     1.54400
O576        O  0.88298443  0.16750731  0.36850797    -0.80500
O577        O  0.88588406  0.07392632  0.30270655    -0.78800
O578        O  0.85276304  0.19100582  0.33881707    -0.83000
O579        O  0.80903266  0.14363790  0.33516157    -0.77900
O580        O  0.92282176  0.12343962  0.34849174    -0.79700
O581        O  0.84974917  0.10348728  0.26186783    -0.82400
C582        C  0.81042121  0.12918698  0.35844144     0.98300
C583        C  0.87114097  0.19073296  0.35921409     1.05800
O584        O  0.86805249  0.13342653  0.31595424    -1.11400
O585        O  0.89204496  0.15146620  0.25842803    -0.73800
O586        O  0.86371855  0.18501994  0.27898818    -0.77300
O587        O  0.83443030  0.12212877  0.37038264    -0.78000
C588        C  0.88208560  0.17722342  0.26001358     0.97300
O589        O  0.81936180  0.13883744  0.27521814    -0.76000
O590        O  0.92792265  0.12223575  0.30038092    -0.81200
C591        C  0.87956247  0.06326363  0.32728432     0.99900
C592        C  0.93851835  0.12416281  0.32571495     1.05800
O593        O  0.87522411  0.07904017  0.34960136    -0.76800
C594        C  0.82548100  0.11649604  0.26024891     1.04100
Fe595      Fe  0.69362065  0.16269317  0.16054622     1.65800
Fe596      Fe  0.71711156  0.11332312  0.11076702     1.73200
Fe597      Fe  0.64331034  0.12413135  0.12139930     1.54400
O598        O  0.63098795  0.12101544  0.16510309    -0.80500
O599        O  0.69856211  0.12065991  0.07101639    -0.78800
O600        O  0.66483257  0.14550365  0.18962103    -0.83000
O601        O  0.66416344  0.19186075  0.14483922    -0.77900
O602        O  0.65029319  0.07915720  0.12254810    -0.79700
O603        O  0.74146803  0.15051474  0.10420782    -0.82400
C604        C  0.64203068  0.19148472  0.12863827     0.98300
C605        C  0.64227186  0.12987985  0.18873062     1.05800
O606        O  0.68461971  0.13331571  0.13087070    -1.11400
O607        O  0.73969769  0.10379032  0.14853457    -0.73800
O608        O  0.72451146  0.13741419  0.17992447    -0.77300
O609        O  0.63114281  0.16811268  0.11861552    -0.78000
C610        C  0.74022415  0.11573607  0.17337972     0.97300
O611        O  0.72387666  0.18329021  0.13514103    -0.76000
O612        O  0.69763402  0.07355168  0.11445522    -0.81200
C613        C  0.67330374  0.12505967  0.06083566     0.99900
C614        C  0.67270224  0.06310244  0.11947480     1.05800
O615        O  0.65069167  0.12585379  0.07675108    -0.76800
C616        C  0.74113600  0.17590474  0.11497126     1.04100
Fe617      Fe  0.66415596  0.33841125  0.18804992     1.65800
Fe618      Fe  0.61451039  0.38610752  0.21257455     1.73200
Fe619      Fe  0.62399219  0.37625867  0.13943536     1.54400
O620        O  0.66770812  0.37413764  0.12520757    -0.80500
O621        O  0.57480121  0.37527206  0.19619941    -0.78800
O622        O  0.69337800  0.36124024  0.16423897    -0.83000
O623        O  0.65368414  0.31203538  0.15343219    -0.77900
O624        O  0.62980388  0.42061209  0.14618664    -0.79700
O625        O  0.61328628  0.34843298  0.23810613    -0.82400
C626        C  0.63230328  0.31057819  0.13619489     0.98300
C627        C  0.69178735  0.37126504  0.13875966     1.05800
O628        O  0.63411711  0.36710837  0.17996558    -1.11400
O629        O  0.65258780  0.39913062  0.23207835    -0.73800
O630        O  0.67975909  0.35996429  0.22372929    -0.77300
O631        O  0.61658708  0.33249875  0.13003162    -0.78000
C632        C  0.67525058  0.38407369  0.23630094     0.97300
O633        O  0.63675624  0.31408564  0.21320720    -0.76000
O634        O  0.61379673  0.42595257  0.19167132    -0.81200
C635        C  0.56392909  0.37777645  0.17103707     0.99900
C636        C  0.62271557  0.43650830  0.16775029     1.05800
O637        O  0.57944062  0.38018831  0.14824304    -0.76800
C638        C  0.62116337  0.32203811  0.23453250     1.04100
Fe639      Fe  0.66523195  0.18589938  0.33625540     1.65800
Fe640      Fe  0.61510916  0.21053745  0.38443375     1.73200
Fe641      Fe  0.62494043  0.13653114  0.37438112     1.54400
O642        O  0.62443261  0.12375806  0.33032719    -0.80500
O643        O  0.62179835  0.19248106  0.42464365    -0.78800
O644        O  0.64630935  0.15966013  0.30626471    -0.83000
O645        O  0.69263062  0.15400348  0.35047162    -0.77900
O646        O  0.58019750  0.14393351  0.37073602    -0.79700
O647        O  0.65290419  0.23452589  0.39053748    -0.82400
C648        C  0.69212946  0.13352912  0.36865689     0.98300
C649        C  0.63191733  0.13631737  0.30681159     1.05800
O650        O  0.63489383  0.17759300  0.36504392    -1.11400
O651        O  0.60628166  0.23290960  0.34616116    -0.73800
O652        O  0.64295523  0.21959036  0.31757969    -0.77300
O653        O  0.66872422  0.12449530  0.38023436    -0.78000
C654        C  0.62072325  0.23500065  0.32275564     0.97300
O655        O  0.68694872  0.21332502  0.36344359    -0.76000
O656        O  0.57487849  0.19105573  0.38139440    -0.81200
C657        C  0.62354346  0.16700620  0.43512401     0.99900
C658        C  0.56433710  0.16611743  0.37593295     1.05800
O659        O  0.62352578  0.14424910  0.41924510    -0.76800
C660        C  0.67902087  0.23227274  0.38179854     1.04100
Fe661      Fe  0.83754106  0.83713246  0.30446904     1.65800
Fe662      Fe  0.88635153  0.88698060  0.28215803     1.73200
Fe663      Fe  0.87459656  0.87641428  0.35531253     1.54400
O664        O  0.83014688  0.87679796  0.36692772    -0.80500
O665        O  0.92581357  0.87731437  0.30015092    -0.78800
O666        O  0.80657779  0.85710162  0.32930880    -0.83000
O667        O  0.84961253  0.80951298  0.33722202    -0.77900
O668        O  0.87106348  0.92118607  0.34871760    -0.79700
O669        O  0.89063322  0.85014087  0.25648354    -0.82400
C670        C  0.86775759  0.80962117  0.35780849     0.98300
C671        C  0.80676131  0.87051054  0.35335005     1.05800
O672        O  0.86612787  0.86704133  0.31410431    -1.11400
O673        O  0.84852919  0.89838690  0.26075985    -0.73800
O674        O  0.82093371  0.85979237  0.26981826    -0.77300
O675        O  0.88005691  0.83267956  0.36669975    -0.78000
C676        C  0.82581496  0.88342537  0.25662975     0.97300
O677        O  0.86624970  0.81483950  0.27859517    -0.76000
O678        O  0.88477689  0.92661660  0.30270899    -0.81200
C679        C  0.93574097  0.87559011  0.32578117     0.99900
C680        C  0.87714893  0.93712510  0.32702212     1.05800
O681        O  0.91957956  0.87727563  0.34824297    -0.76800
C682        C  0.88318539  0.82370929  0.25886115     1.04100
Fe683      Fe  0.83877791  0.68826174  0.16179446     1.65800
Fe684      Fe  0.88505239  0.71254169  0.11012806     1.73200
Fe685      Fe  0.87780604  0.63864966  0.12216897     1.54400
O686        O  0.88329795  0.62708347  0.16591913    -0.80500
O687        O  0.88165766  0.69211248  0.07074604    -0.78800
O688        O  0.85397346  0.65748098  0.18958500    -0.83000
O689        O  0.80912724  0.66066598  0.14381589    -0.77900
O690        O  0.92233169  0.64779049  0.12155005    -0.79700
O691        O  0.84574628  0.73275003  0.10081155    -0.82400
C692        C  0.81022150  0.63722937  0.12937863     0.98300
C693        C  0.87182274  0.63662217  0.18919566     1.05800
O694        O  0.86728770  0.67970753  0.13125772    -1.11400
O695        O  0.89051189  0.73812722  0.14677359    -0.73800
O696        O  0.86585019  0.71690004  0.18246871    -0.77300
O697        O  0.83403438  0.62529481  0.12140765    -0.78000
C698        C  0.88288753  0.73635312  0.17318074     0.97300
O699        O  0.81897990  0.72072956  0.13899963    -0.76000
O700        O  0.92606857  0.69600731  0.11709903    -0.81200
C701        C  0.87660638  0.66683693  0.06104907     0.99900
C702        C  0.93740660  0.67100745  0.12062458     1.05800
O703        O  0.87427623  0.64475298  0.07745080    -0.76800
C704        C  0.82262697  0.73469715  0.11569265     1.04100
Fe705      Fe  0.68846547  0.83846062  0.16210940     1.65800
Fe706      Fe  0.71303439  0.88423258  0.10988107     1.73200
Fe707      Fe  0.63904857  0.87698851  0.12169556     1.54400
O708        O  0.62689429  0.83309256  0.11834808    -0.80500
O709        O  0.69497554  0.92504347  0.11359310    -0.78800
O710        O  0.65811704  0.80967186  0.14722534    -0.83000
O711        O  0.66042963  0.85752508  0.19054756    -0.77900
O712        O  0.64580005  0.87598554  0.07695636    -0.79700
O713        O  0.73735215  0.89324023  0.14668030    -0.82400
C714        C  0.63741244  0.87246069  0.18919063     0.98300
C715        C  0.63698211  0.80986752  0.12965572     1.05800
O716        O  0.68014549  0.86665495  0.13118876    -1.11400
O717        O  0.73513218  0.84530392  0.10358793    -0.73800
O718        O  0.71812918  0.81594962  0.13779628    -0.77300
O719        O  0.62590154  0.88012030  0.16528233    -0.78000
C720        C  0.73464308  0.82091360  0.11641803     0.97300
O721        O  0.72018066  0.86346343  0.18052304    -0.76000
O722        O  0.69372559  0.87743188  0.07046291    -0.81200
C723        C  0.67051562  0.93658542  0.11945683     0.99900
C724        C  0.66810041  0.87537201  0.06067894     1.05800
O725        O  0.64759517  0.92158737  0.12339062    -0.76800
C726        C  0.73752039  0.88308030  0.17224947     1.04100
Fe727      Fe  0.65912616  0.80976751  0.33413273     1.65800
Fe728      Fe  0.61032642  0.78637796  0.38429181     1.73200
Fe729      Fe  0.62071992  0.86022085  0.37359403     1.54400
O730        O  0.66470090  0.87280537  0.37472645    -0.80500
O731        O  0.57003267  0.80492007  0.37815920    -0.78800
O732        O  0.68871959  0.83800597  0.35083936    -0.83000
O733        O  0.64298782  0.83981185  0.30564675    -0.77900
O734        O  0.62370928  0.85335957  0.41813295    -0.79700
O735        O  0.60326021  0.76199010  0.34702237    -0.82400
C736        C  0.62637849  0.86177623  0.30645940     0.98300
C737        C  0.68819445  0.86114511  0.36563851     1.05800
O738        O  0.62999968  0.81883754  0.36407715    -1.11400
O739        O  0.64832342  0.76355106  0.39278901    -0.73800
O740        O  0.67905254  0.77826018  0.35856932    -0.77300
O741        O  0.61612775  0.87213824  0.32996768    -0.78000
C742        C  0.67285492  0.76256321  0.38024218     0.97300
O743        O  0.63325036  0.78011706  0.31381378    -0.76000
O744        O  0.61520668  0.80599816  0.42412329    -0.81200
C745        C  0.55980013  0.83042549  0.37518631     0.99900
C746        C  0.62088370  0.83106811  0.43416669     1.05800
O747        O  0.57586917  0.85291574  0.37415456    -0.76800
C748        C  0.61365712  0.76254121  0.32151743     1.04100
Fe749      Fe  0.80786821  0.66259974  0.33598123     1.65800
Fe750      Fe  0.78442022  0.61365200  0.38596717     1.73200
Fe751      Fe  0.85820817  0.62351239  0.37474613     1.54400
O752        O  0.87065713  0.62149256  0.33087832    -0.80500
O753        O  0.80334422  0.62065312  0.42585971    -0.78800
O754        O  0.83583325  0.64472046  0.30640102    -0.83000
O755        O  0.83811461  0.69122321  0.35103364    -0.77900
O756        O  0.85095196  0.57859619  0.37248854    -0.79700
O757        O  0.76037255  0.65142709  0.39253339    -0.82400
C758        C  0.85976095  0.69086037  0.36789431     0.98300
C759        C  0.85900215  0.62987681  0.30723805     1.05800
O760        O  0.81687811  0.63316565  0.36560124    -1.11400
O761        O  0.76117636  0.60450009  0.34841453    -0.73800
O762        O  0.77605636  0.63813070  0.31715718    -0.77300
O763        O  0.87012255  0.66750110  0.37863472    -0.78000
C764        C  0.76017543  0.61673590  0.32376726     0.97300
O765        O  0.77844689  0.68393860  0.36179163    -0.76000
O766        O  0.80367644  0.57334165  0.38173822    -0.81200
C767        C  0.82890054  0.62366395  0.43581478     0.99900
C768        C  0.82853788  0.56274447  0.37593144     1.05800
O769        O  0.85128805  0.62392072  0.41957128    -0.76800
C770        C  0.76089952  0.67678138  0.38168249     1.04100
Fe771      Fe  0.66263653  0.66279102  0.18805068     1.65800
Fe772      Fe  0.61315986  0.61350001  0.21127634     1.73200
Fe773      Fe  0.62420519  0.62344994  0.13763941     1.54400
O774        O  0.62017830  0.66735774  0.12561843    -0.80500
O775        O  0.61707299  0.57352872  0.19199087    -0.78800
O776        O  0.64790477  0.69117573  0.15732234    -0.83000
O777        O  0.69233478  0.64428193  0.16077465    -0.77900
O778        O  0.57917830  0.62410669  0.14466072    -0.79700
O779        O  0.65063542  0.60415490  0.23431914    -0.82400
C780        C  0.69187884  0.62906813  0.13787799     0.98300
C781        C  0.63086028  0.69074808  0.13583522     1.05800
O782        O  0.63331043  0.63316162  0.17891901    -1.11400
O783        O  0.60668006  0.65094342  0.23530153    -0.73800
O784        O  0.63617865  0.68439246  0.21679455    -0.77300
O785        O  0.66836773  0.62113584  0.12556513    -0.78000
C786        C  0.61668843  0.67657586  0.23452611     0.97300
O787        O  0.68133065  0.63874867  0.22054654    -0.76000
O788        O  0.57350371  0.62070244  0.19260996    -0.81200
C789        C  0.62288777  0.56278564  0.16730285     0.99900
C790        C  0.56323855  0.62394998  0.16729638     1.05800
O791        O  0.62646444  0.57853910  0.14487322    -0.76800
C792        C  0.67490215  0.61700124  0.23606794     1.04100
Fe793      Fe  0.19261832  0.33813846  0.33701266     1.65800
Fe794      Fe  0.21328947  0.38796009  0.38733235     1.73200
Fe795      Fe  0.14010479  0.37649154  0.37371002     1.54400
O796        O  0.12928070  0.37816685  0.32929481    -0.80500
O797        O  0.19353746  0.37947620  0.42627028    -0.78800
O798        O  0.16581287  0.35582355  0.30637818    -0.83000
O799        O  0.16209118  0.30905221  0.35079056    -0.77900
O800        O  0.14630289  0.42146204  0.37171493    -0.79700
O801        O  0.23885155  0.35107403  0.39367972    -0.82400
C802        C  0.14000522  0.30923231  0.36712063     0.98300
C803        C  0.14234700  0.37023165  0.30616514     1.05800
O804        O  0.18194599  0.36763423  0.36602760    -1.11400
O805        O  0.23686403  0.39841418  0.35059533    -0.73800
O806        O  0.22497009  0.36306577  0.31974561    -0.77300
O807        O  0.12891172  0.33249646  0.37729751    -0.78000
C808        C  0.23953621  0.38540849  0.32645287     0.97300
O809        O  0.22116439  0.31718380  0.36407430    -0.76000
O810        O  0.19287007  0.42767496  0.38343329    -0.81200
C811        C  0.16781743  0.37585724  0.43551446     0.99900
C812        C  0.16813017  0.43773737  0.37639515     1.05800
O813        O  0.14573823  0.37601986  0.41880515    -0.76800
C814        C  0.23878549  0.32537606  0.38351814     1.04100
Fe815      Fe  0.33827959  0.33725051  0.19259086     1.65800
Fe816      Fe  0.38814877  0.38555234  0.21685702     1.73200
Fe817      Fe  0.37730790  0.37630093  0.14319950     1.54400
O818        O  0.38294704  0.33268178  0.13141349    -0.80500
O819        O  0.38474529  0.42591642  0.19784555    -0.78800
O820        O  0.35130134  0.30976588  0.15985720    -0.83000
O821        O  0.30850223  0.35778843  0.16707002    -0.77900
O822        O  0.42214627  0.37797662  0.15050916    -0.79700
O823        O  0.35080037  0.39548927  0.23956677    -0.82400
C824        C  0.30949175  0.37096101  0.14303425     0.98300
C825        C  0.36989173  0.30979740  0.13960666     1.05800
O826        O  0.36801132  0.36645745  0.18417394    -1.11400
O827        O  0.39375421  0.34734235  0.24024161    -0.73800
O828        O  0.36520891  0.31428388  0.21946411    -0.77300
O829        O  0.33331783  0.37673662  0.13012495    -0.78000
C830        C  0.38417722  0.32153283  0.23802542     0.97300
O831        O  0.32071420  0.36007968  0.22667407    -0.76000
O832        O  0.42789445  0.37844925  0.19851871    -0.81200
C833        C  0.37789987  0.43648886  0.17331617     0.99900
C834        C  0.43818850  0.37818333  0.17302598     1.05800
O835        O  0.37336628  0.42077218  0.15098376    -0.76800
C836        C  0.32684162  0.38228886  0.24172671     1.04100
Fe837      Fe  0.33685708  0.18986011  0.33938003     1.65800
Fe838      Fe  0.38839815  0.21265969  0.38682335     1.73200
Fe839      Fe  0.37712092  0.13903493  0.37613012     1.54400
O840        O  0.33336829  0.12732899  0.38159171    -0.80500
O841        O  0.42808067  0.19192118  0.38435981    -0.78800
O842        O  0.30862514  0.15990639  0.35566480    -0.83000
O843        O  0.35310618  0.16185201  0.30904371    -0.77900
O844        O  0.37813351  0.14671345  0.42112144    -0.79700
O845        O  0.39823049  0.23356312  0.34843933    -0.82400
C846        C  0.36815734  0.13880497  0.30881009     0.98300
C847        C  0.30962365  0.13805065  0.37221605     1.05800
O848        O  0.36758821  0.18042697  0.36743746    -1.11400
O849        O  0.35188811  0.23906841  0.39258125    -0.73800
O850        O  0.31680411  0.21924388  0.36612868    -0.77300
O851        O  0.37756940  0.12674500  0.33192262    -0.78000
C852        C  0.32570005  0.23813676  0.38396879     0.97300
O853        O  0.36112814  0.22152718  0.31973516    -0.76000
O854        O  0.38053732  0.19490614  0.42671461    -0.81200
C855        C  0.43822309  0.16698473  0.37811902     0.99900
C856        C  0.37803920  0.16947065  0.43708800     1.05800
O857        O  0.42195489  0.14538596  0.37246338    -0.76800
C858        C  0.38421322  0.23561778  0.32481482     1.04100
Fe859      Fe  0.16523232  0.16233462  0.30999926     1.65800
Fe860      Fe  0.11521853  0.11443231  0.28452967     1.73200
Fe861      Fe  0.12444291  0.12325564  0.35854766     1.54400
O862        O  0.16800610  0.12003332  0.37214807    -0.80500
O863        O  0.07510655  0.12091299  0.30229814    -0.78800
O864        O  0.19349984  0.14448645  0.33912398    -0.83000
O865        O  0.14895083  0.19102349  0.33966130    -0.77900
O866        O  0.12583727  0.07847731  0.35052566    -0.79700
O867        O  0.10900016  0.15251107  0.26147832    -0.82400
C868        C  0.13185788  0.19047862  0.36111715     0.98300
C869        C  0.19199433  0.12895373  0.36166352     1.05800
O870        O  0.13494418  0.13326056  0.31776505    -1.11400
O871        O  0.15306356  0.10550943  0.26227790    -0.73800
O872        O  0.18525939  0.13738074  0.27903003    -0.77300
O873        O  0.12109224  0.16707886  0.37115459    -0.78000
C874        C  0.17818810  0.11664779  0.26237346     0.97300
O875        O  0.14083035  0.18392952  0.27959174    -0.76000
O876        O  0.11873143  0.07410232  0.30286708    -0.81200
C877        C  0.06431354  0.12421334  0.32737094     0.99900
C878        C  0.12305119  0.06306889  0.32768271     1.05800
O879        O  0.07980448  0.12478137  0.35026535    -0.76800
C880        C  0.12049734  0.17751299  0.26222424     1.04100
Fe881      Fe  0.30730751  0.16325836  0.15958485     1.65800
Fe882      Fe  0.28489038  0.11202206  0.11137051     1.73200
Fe883      Fe  0.35831059  0.12394798  0.12215378     1.54400
O884        O  0.37095936  0.16803144  0.12119152    -0.80500
O885        O  0.30389812  0.07243377  0.11890806    -0.78800
O886        O  0.33409910  0.19276938  0.14077872    -0.83000
O887        O  0.33821739  0.14966057  0.18868907    -0.77900
O888        O  0.35144797  0.12713327  0.07731858    -0.79700
O889        O  0.26111889  0.10573433  0.14904939    -0.82400
C890        C  0.35891851  0.13146740  0.18918446     0.98300
C891        C  0.35812033  0.19183536  0.12755288     1.05800
O892        O  0.31687547  0.13303363  0.13093515    -1.11400
O893        O  0.26123709  0.14904691  0.10124188    -0.73800
O894        O  0.27479384  0.18099952  0.13482082    -0.77300
O895        O  0.36887087  0.11934443  0.16632647    -0.78000
C896        C  0.25949499  0.17386167  0.11313047     0.97300
O897        O  0.27915879  0.13699525  0.18126351    -0.76000
O898        O  0.30463484  0.11592322  0.07159123    -0.81200
C899        C  0.32947357  0.06249067  0.12155044     0.99900
C900        C  0.32923139  0.12295840  0.06129614     1.05800
O901        O  0.35176103  0.07883940  0.12150940    -0.76800
C902        C  0.26220287  0.11650612  0.17441684     1.04100
Fe903      Fe  0.16398513  0.30890167  0.15788289     1.65800
Fe904      Fe  0.11243182  0.28566387  0.11097713     1.73200
Fe905      Fe  0.12417721  0.35898634  0.12089962     1.54400
O906        O  0.11819921  0.36902927  0.16477952    -0.80500
O907        O  0.11358598  0.30608910  0.07091121    -0.78800
O908        O  0.15267857  0.34216038  0.18573984    -0.83000
O909        O  0.19358621  0.33373889  0.13659628    -0.77900
O910        O  0.07930205  0.35179139  0.11868505    -0.79700
O911        O  0.14959386  0.26344107  0.09864244    -0.82400
C912        C  0.19220874  0.35910585  0.12622560     0.98300
C913        C  0.13271561  0.36117891  0.18693049     1.05800
O914        O  0.13352101  0.31786158  0.12971821    -1.11400
O915        O  0.10907017  0.26099269  0.14884997    -0.73800
O916        O  0.13716175  0.28284117  0.18155788    -0.77300
O917        O  0.16815071  0.37233445  0.12183307    -0.78000
C918        C  0.11869549  0.26369481  0.17461798     0.97300
O919        O  0.17992364  0.27431891  0.13458747    -0.76000
O920        O  0.07304241  0.30381636  0.12129248    -0.81200
C921        C  0.12200191  0.33029786  0.06051419     0.99900
C922        C  0.06309825  0.32956238  0.12136640     1.05800
O923        O  0.12851300  0.35202375  0.07643364    -0.76800
C924        C  0.17352928  0.26022721  0.11184146     1.04100
Fe925      Fe  0.33357127  0.81279631  0.33668021     1.65800
Fe926      Fe  0.38319737  0.78933907  0.38605790     1.73200
Fe927      Fe  0.37335211  0.86320396  0.37475157     1.54400
O928        O  0.37714024  0.87439931  0.33066433    -0.80500
O929        O  0.37770977  0.80892951  0.42586309    -0.78800
O930        O  0.34919234  0.84232513  0.30756521    -0.83000
O931        O  0.30472175  0.84155309  0.35417234    -0.77900
O932        O  0.41816845  0.85547624  0.37426162    -0.79700
O933        O  0.34559880  0.76607771  0.39432205    -0.82400
C934        C  0.30579776  0.86465921  0.36902099     0.98300
C935        C  0.36637260  0.86370912  0.30752612     1.05800
O936        O  0.36343649  0.82183970  0.36589473    -1.11400
O937        O  0.39084191  0.76569388  0.34841435    -0.73800
O938        O  0.35915472  0.78260371  0.31599226    -0.77300
O939        O  0.32956408  0.87630607  0.37705399    -0.78000
C940        C  0.37987101  0.76584782  0.32312612     0.97300
O941        O  0.31375226  0.78165743  0.36155440    -0.76000
O942        O  0.42340225  0.80766707  0.38040763    -0.81200
C943        C  0.37314545  0.83432382  0.43580945     0.99900
C944        C  0.43393597  0.83274479  0.37619850     1.05800
O945        O  0.37136114  0.85668228  0.41960026    -0.76800
C946        C  0.32068587  0.76540829  0.38260407     1.04100
Fe947      Fe  0.16153934  0.83754276  0.30742478     1.65800
Fe948      Fe  0.11149125  0.88589480  0.28227550     1.73200
Fe949      Fe  0.12115230  0.87669617  0.35629131     1.54400
O950        O  0.11969863  0.83287760  0.36940534    -0.80500
O951        O  0.11630749  0.92626626  0.30046755    -0.78800
O952        O  0.14372095  0.80817481  0.33523769    -0.83000
O953        O  0.18936811  0.85380306  0.33792761    -0.77900
O954        O  0.07683180  0.87359214  0.34865364    -0.79700
O955        O  0.14964901  0.89351341  0.25913577    -0.82400
C956        C  0.18820425  0.87134005  0.35905955     0.98300
C957        C  0.12831499  0.80911443  0.35792501     1.05800
O958        O  0.13130036  0.86677305  0.31535403    -1.11400
O959        O  0.10411116  0.84785689  0.25951918    -0.73800
O960        O  0.13819387  0.81748328  0.27551901    -0.77300
O961        O  0.16450454  0.88179521  0.36873484    -0.78000
C962        C  0.11694835  0.82344525  0.25915002     0.97300
O963        O  0.18243188  0.86344339  0.27822091    -0.76000
O964        O  0.07121866  0.88041399  0.30101574    -0.81200
C965        C  0.11954216  0.93700991  0.32561360     0.99900
C966        C  0.06098643  0.87551268  0.32614141     1.05800
O967        O  0.12077773  0.92136855  0.34834858    -0.76800
C968        C  0.17533418  0.88330081  0.26057129     1.04100
Fe969      Fe  0.30833048  0.83618416  0.15946163     1.65800
Fe970      Fe  0.28518938  0.88705130  0.11121267     1.73200
Fe971      Fe  0.35895147  0.87507424  0.12111247     1.54400
O972        O  0.37047539  0.87899190  0.16508618    -0.80500
O973        O  0.30424684  0.88214424  0.07107967    -0.78800
O974        O  0.33840472  0.85132289  0.18849290    -0.83000
O975        O  0.33631607  0.80670224  0.14182045    -0.77900
O976        O  0.35234631  0.92017751  0.12150086    -0.79700
O977        O  0.26123420  0.84992651  0.10229827    -0.82400
C978        C  0.35949909  0.80728422  0.12718946     0.98300
C979        C  0.35992546  0.86837079  0.18832112     1.05800
O980        O  0.31754634  0.86613493  0.13049283    -1.11400
O981        O  0.26185496  0.89444915  0.14916818    -0.73800
O982        O  0.27879561  0.86190490  0.18058928    -0.77300
O983        O  0.37142164  0.83089499  0.11905693    -0.78000
C984        C  0.26217720  0.88293023  0.17418638     0.97300
O985        O  0.27676507  0.81727451  0.13436525    -0.76000
O986        O  0.30449411  0.92667160  0.11775015    -0.81200
C987        C  0.32910081  0.87619199  0.06056284     0.99900
C988        C  0.32997554  0.93656269  0.12100032     1.05800
O989        O  0.35163377  0.87286182  0.07633363    -0.76800
C990        C  0.26047561  0.82476185  0.11350774     1.04100
Fe991      Fe  0.16533236  0.68994237  0.15740276     1.65800
Fe992      Fe  0.11444479  0.71307329  0.11014427     1.73200
Fe993      Fe  0.12393889  0.64014504  0.12251526     1.54400
O994        O  0.16764082  0.62549685  0.12411067    -0.80500
O995        O  0.07466396  0.69727046  0.12207089    -0.78800
O996        O  0.19413270  0.66454460  0.13538227    -0.83000
O997        O  0.15499265  0.65670355  0.18555498    -0.77900
O998        O  0.12804514  0.64487348  0.07766822    -0.79700
O999        O  0.11306786  0.73935055  0.14680159    -0.82400
C1000       C  0.13373248  0.63946403  0.18802780     0.98300
C1001       C  0.19203251  0.63845776  0.12691058     1.05800
O1002       O  0.13462791  0.68100668  0.12969300    -1.11400
O1003       O  0.15233671  0.73286992  0.09623769    -0.73800
O1004       O  0.18099858  0.72468130  0.13421573    -0.77300
O1005       O  0.11770678  0.63250648  0.16669258    -0.78000
C1006       C  0.17539327  0.73750642  0.11056307     0.97300
O1007       O  0.13823614  0.71620280  0.18103270    -0.76000
O1008       O  0.11292091  0.69066888  0.07141274    -0.81200
C1009       C  0.06370214  0.67202338  0.12248762     0.99900
C1010       C  0.11980157  0.66576587  0.06143504     1.05800
O1011       O  0.07924853  0.64910574  0.12017038    -0.76800
C1012       C  0.12110774  0.73630886  0.17301500     1.04100
Fe1013     Fe  0.33817708  0.66221050  0.19218756     1.65800
Fe1014     Fe  0.38838224  0.61390930  0.21650969     1.73200
Fe1015     Fe  0.37654977  0.62215775  0.14273820     1.54400
O1016       O  0.33245793  0.62059361  0.13071064    -0.80500
O1017       O  0.42807842  0.62123562  0.19726021    -0.78800
O1018       O  0.30812883  0.64135958  0.16720813    -0.83000
O1019       O  0.35071951  0.68935939  0.15934022    -0.77900
O1020       O  0.37382670  0.57778913  0.15099209    -0.79700
O1021       O  0.39392307  0.65249346  0.23968138    -0.82400
C1022       C  0.36884429  0.68886105  0.13873330     0.98300
C1023       C  0.30884502  0.62698199  0.14377464     1.05800
O1024       O  0.36778951  0.63262693  0.18378457    -1.11400
O1025       O  0.35090776  0.60439228  0.23989713    -0.73800
O1026       O  0.32119282  0.64010626  0.22660060    -0.77300
O1027       O  0.38117136  0.66561293  0.13010685    -0.78000
C1028       C  0.32700930  0.61809900  0.24198718     0.97300
O1029       O  0.36534747  0.68540576  0.21851653    -0.76000
O1030       O  0.38501621  0.57317378  0.19791447    -0.81200
C1031       C  0.43777336  0.62296254  0.17149234     0.99900
C1032       C  0.37834375  0.56231665  0.17342271     1.05800
O1033       O  0.42133327  0.62190037  0.14932486    -0.76800
C1034       C  0.38425566  0.67833897  0.23722312     1.04100
Fe1035     Fe  0.19017940  0.66393805  0.33938501     1.65800
Fe1036     Fe  0.21256347  0.61400251  0.38793106     1.73200
Fe1037     Fe  0.13937974  0.62429937  0.37529402     1.54400
O1038       O  0.12827974  0.66790407  0.38237895    -0.80500
O1039       O  0.19226836  0.57387504  0.38505074    -0.78800
O1040       O  0.15577111  0.69046293  0.34982006    -0.83000
O1041       O  0.16731351  0.64318875  0.30797172    -0.77900
O1042       O  0.14568600  0.62119420  0.42024360    -0.79700
O1043       O  0.23482014  0.60317824  0.35035540    -0.82400
C1044       C  0.14263906  0.63117825  0.30765352     0.98300
C1045       C  0.13612885  0.69069072  0.36899728     1.05800
O1046       O  0.18061153  0.63381337  0.36755690    -1.11400
O1047       O  0.23750179  0.65179050  0.39284404    -0.73800
O1048       O  0.21402166  0.68671370  0.36894984    -0.77300
O1049       O  0.12809662  0.62591291  0.33071351    -0.78000
C1050       C  0.23422877  0.67837047  0.38565012     0.97300
O1051       O  0.22639961  0.64269637  0.32396133    -0.76000
O1052       O  0.19372117  0.62290178  0.42731939    -0.81200
C1053       C  0.16807712  0.56370334  0.37636186     0.99900
C1054       C  0.16780601  0.62326010  0.43678746     1.05800
O1055       O  0.14645216  0.57986472  0.37010187    -0.76800
C1056       C  0.23953825  0.61883310  0.32826478     1.04100
C1057       C  0.31150986  0.60236802  0.29206715     0.24700
C1058       C  0.30449762  0.60938968  0.26313925    -0.23400
C1059       C  0.27515180  0.61353046  0.25556318     0.19600
C1060       C  0.25367772  0.61393799  0.27679336     0.24700
C1061       C  0.26092973  0.60994796  0.30610298    -0.23300
C1062       C  0.28972424  0.60263645  0.31352656     0.19600
F1063       F  0.29723587  0.59872395  0.34175766    -0.13300
F1064       F  0.33962901  0.59819462  0.30003849    -0.15600
F1065       F  0.22593547  0.62040018  0.26892038    -0.15600
F1066       F  0.26746379  0.61947545  0.22773198    -0.13300
C1067       C  0.23965494  0.63411775  0.10204742     0.24700
C1068       C  0.21992653  0.62315129  0.12265625    -0.23400
C1069       C  0.23063464  0.60624890  0.14566567     0.19600
C1070       C  0.26064831  0.60390719  0.15026306     0.24700
C1071       C  0.28030225  0.61839069  0.13189800    -0.23300
C1072       C  0.26974280  0.63164145  0.10657746     0.19600
F1073       F  0.28825519  0.64565143  0.08845549    -0.13300
F1074       F  0.22977405  0.65050786  0.07961078    -0.15600
F1075       F  0.27044473  0.59038165  0.17457283    -0.15600
F1076       F  0.21216713  0.59588039  0.16616389    -0.13300
C1077       C  0.10990246  0.64143121  0.26575302     0.24700
C1078       C  0.13150272  0.62393449  0.27848388    -0.23400
C1079       C  0.14906046  0.60641584  0.26046301     0.19600
C1080       C  0.14739567  0.60886980  0.23022912     0.24700
C1081       C  0.12776587  0.62847066  0.21749462    -0.23300
C1082       C  0.10800422  0.64363010  0.23537571     0.19600
F1083       F  0.08934372  0.66327009  0.22356687    -0.13300
F1084       F  0.09333193  0.65923532  0.28258211    -0.15600
F1085       F  0.16707014  0.59446586  0.21350913    -0.15600
F1086       F  0.17024324  0.58949969  0.27225833    -0.13300
C1087       C  0.20950596  0.81073429  0.10081036     0.24700
C1088       C  0.23908076  0.80318801  0.10329421    -0.23400
C1089       C  0.24725945  0.77373877  0.10144829     0.19600
C1090       C  0.22613068  0.75205162  0.10031525     0.24700
C1091       C  0.19649396  0.75945300  0.10094230    -0.23300
C1092       C  0.18827954  0.78891250  0.09965492     0.19600
F1093       F  0.15975379  0.79654226  0.10085898    -0.13300
F1094       F  0.20097256  0.83897207  0.10298418    -0.15600
F1095       F  0.23454866  0.72370004  0.10105790    -0.15600
F1096       F  0.27570649  0.76588966  0.10296630    -0.13300
C1097       C  0.39281085  0.76618623  0.13860568     0.24700
C1098       C  0.37191794  0.77845388  0.12002756    -0.23400
C1099       C  0.35560317  0.75988383  0.10198427     0.19600
C1100       C  0.35748380  0.72957681  0.10511256     0.24700
C1101       C  0.37602254  0.71741294  0.12604131    -0.23300
C1102       C  0.39487821  0.73584274  0.14155254     0.19600
F1103       F  0.41258028  0.72461560  0.16233488    -0.13300
F1104       F  0.40830996  0.78350809  0.15677276    -0.15600
F1105       F  0.33861610  0.71235851  0.09036448    -0.15600
F1106       F  0.33512130  0.77120853  0.08399396    -0.13300
C1107       C  0.11053332  0.77165409  0.24584560     0.24700
C1108       C  0.10853087  0.80108662  0.23795336    -0.23400
C1109       C  0.10448600  0.80845493  0.20864062     0.19600
C1110       C  0.10611863  0.78688358  0.18721483     0.24700
C1111       C  0.11169611  0.75775353  0.19501040    -0.23300
C1112       C  0.11203998  0.75014456  0.22458169     0.19600
F1113       F  0.11568652  0.72204977  0.23296507    -0.13300
F1114       F  0.11316598  0.76390286  0.27416934    -0.15600
F1115       F  0.10516188  0.79498138  0.15889072    -0.15600
F1116       F  0.10221778  0.83674786  0.20047925    -0.13300
C1117       C  0.10209573  0.76239778  0.35368970     0.24700
C1118       C  0.12035311  0.78057735  0.37017577    -0.23400
C1119       C  0.13775483  0.76814731  0.39193009     0.19600
C1120       C  0.13931680  0.73777448  0.39487185     0.24700
C1121       C  0.12372548  0.71952407  0.37590201    -0.23300
C1122       C  0.10383287  0.73207237  0.35647772     0.19600
F1123       F  0.08887432  0.71496584  0.33765858    -0.13300
F1124       F  0.08528649  0.77388532  0.33232085    -0.15600
F1125       F  0.15904112  0.72614193  0.41350619    -0.15600
F1126       F  0.15611349  0.78511135  0.40758397    -0.13300
C1127       C  0.22752532  0.88947314  0.24758650     0.24700
C1128       C  0.19806346  0.89298515  0.23998203    -0.23400
C1129       C  0.19105523  0.90039661  0.21115593     0.19600
C1130       C  0.21269858  0.90025405  0.18967020     0.24700
C1131       C  0.24149250  0.89265032  0.19683177    -0.23300
C1132       C  0.24897515  0.88918025  0.22623045     0.19600
F1133       F  0.27685311  0.88331985  0.23412567    -0.13300
F1134       F  0.23539419  0.88407128  0.27550046    -0.15600
F1135       F  0.20489398  0.90444446  0.16156008    -0.15600
F1136       F  0.16297482  0.90476761  0.20315434    -0.13300
C1137       C  0.35713334  0.89544510  0.26461965     0.24700
C1138       C  0.37457584  0.87451709  0.27846803    -0.23400
C1139       C  0.39291047  0.85681265  0.26141652     0.19600
C1140       C  0.39119613  0.85748383  0.23101123     0.24700
C1141       C  0.37150486  0.87629204  0.21719121    -0.23300
C1142       C  0.35576278  0.89644517  0.23415939     0.19600
F1143       F  0.33629358  0.91459735  0.22131177    -0.13300
F1144       F  0.33880292  0.91240596  0.28046428    -0.15600
F1145       F  0.40602881  0.83729285  0.21528393    -0.15600
F1146       F  0.40970404  0.83619397  0.27430458    -0.13300
C1147       C  0.39086150  0.73057329  0.25028149     0.24700
C1148       C  0.39304636  0.70107941  0.25821608    -0.23400
C1149       C  0.39758175  0.69403074  0.28761347     0.19600
C1150       C  0.39614421  0.71576519  0.30895384     0.24700
C1151       C  0.39009773  0.74473308  0.30113209    -0.23300
C1152       C  0.38918330  0.75216364  0.27154694     0.19600
F1153       F  0.38467612  0.78014895  0.26322305    -0.13300
F1154       F  0.38811599  0.73834420  0.22196980    -0.15600
F1155       F  0.39740580  0.70794356  0.33733745    -0.15600
F1156       F  0.40013476  0.66585681  0.29606949    -0.13300
C1157       C  0.26446501  0.89763764  0.35830028     0.24700
C1158       C  0.27733815  0.87717566  0.37691054    -0.23400
C1159       C  0.25944519  0.86090820  0.39557838     0.19600
C1160       C  0.22913114  0.86210479  0.39279132     0.24700
C1161       C  0.21639773  0.87982247  0.37152954    -0.23300
C1162       C  0.23411537  0.89892031  0.35558754     0.19600
F1163       F  0.22224509  0.91595595  0.33460978    -0.13300
F1164       F  0.28122899  0.91328828  0.33981063    -0.15600
F1165       F  0.21252944  0.84308359  0.40797804    -0.15600
F1166       F  0.27143021  0.84083283  0.41360764    -0.13300
C1167       C  0.26935940  0.75169168  0.39273343     0.24700
C1168       C  0.29893790  0.74398896  0.39236100    -0.23400
C1169       C  0.30684216  0.71468166  0.39640242     0.19600
C1170       C  0.28543215  0.69305652  0.39739073     0.24700
C1171       C  0.25584333  0.70054912  0.39449289    -0.23300
C1172       C  0.24801491  0.73023376  0.39406952     0.19600
F1173       F  0.21964723  0.73845787  0.39274191    -0.13300
F1174       F  0.26108518  0.77994848  0.38990335    -0.15600
F1175       F  0.29388248  0.66472632  0.39797202    -0.15600
F1176       F  0.33527064  0.70661837  0.39612953    -0.13300
C1177       C  0.30987905  0.01462701  0.13783383     0.24700
C1178       C  0.33252680  0.03039426  0.12470561    -0.23400
C1179       C  0.35634908  0.01489980  0.11304672     0.19600
C1180       C  0.35649080  0.98422795  0.11290952     0.24700
C1181       C  0.33279941  0.96864165  0.12441148    -0.23300
C1182       C  0.31003192  0.98429461  0.13771001     0.19600
F1183       F  0.28748182  0.97017094  0.15041907    -0.13300
F1184       F  0.28712800  0.02861332  0.15058771    -0.15600
F1185       F  0.37892796  0.96990078  0.10004877    -0.15600
F1186       F  0.37862904  0.02933401  0.10027990    -0.13300
C1187       C  0.20905353  0.18790165  0.09792903     0.24700
C1188       C  0.23828588  0.19554451  0.10264679    -0.23400
C1189       C  0.24601931  0.22508610  0.10298661     0.19600
C1190       C  0.22462609  0.24656911  0.10243082     0.24700
C1191       C  0.19513566  0.23887782  0.10164297    -0.23300
C1192       C  0.18747355  0.20957292  0.09748880     0.19600
F1193       F  0.15907222  0.20167820  0.09648466    -0.13300
F1194       F  0.20103161  0.15950971  0.09717925    -0.15600
F1195       F  0.23257247  0.27487733  0.10528091    -0.15600
F1196       F  0.27418902  0.23311400  0.10634959    -0.13300
C1197       C  0.13257583  0.98490758  0.30368421     0.24700
C1198       C  0.12229916  0.96916517  0.32778109    -0.23400
C1199       C  0.11413726  0.98461574  0.35299737     0.19600
C1200       C  0.11534073  0.01519577  0.35365240     0.24700
C1201       C  0.12468409  0.03080663  0.32909019    -0.23300
C1202       C  0.13381968  0.01516478  0.30436703     0.19600
F1203       F  0.14396957  0.02918007  0.28049503    -0.13300
F1204       F  0.14153436  0.97105096  0.27915483    -0.15600
F1205       F  0.10601879  0.02950041  0.37774674    -0.15600
F1206       F  0.10370948  0.97028295  0.37651653    -0.13300
C1207       C  0.25040211  0.10793502  0.22627280     0.24700
C1208       C  0.24190675  0.10658881  0.19696274    -0.23400
C1209       C  0.21257850  0.10157630  0.19009167     0.19600
C1210       C  0.19160431  0.10178004  0.21206966     0.24700
C1211       C  0.19988191  0.10683874  0.24104174    -0.23300
C1212       C  0.22953820  0.10802573  0.24815704     0.19600
F1213       F  0.23818581  0.11160704  0.27614362    -0.13300
F1214       F  0.27873436  0.11163204  0.23362238    -0.15600
F1215       F  0.16307601  0.10060026  0.20459301    -0.15600
F1216       F  0.20377010  0.10006019  0.16199415    -0.13300
C1217       C  0.11383051  0.22951176  0.24847480     0.24700
C1218       C  0.11138332  0.19992966  0.24111955    -0.23400
C1219       C  0.10462051  0.19228155  0.21229364     0.19600
C1220       C  0.10404975  0.21359586  0.19057835     0.24700
C1221       C  0.11012308  0.24281178  0.19750243    -0.23300
C1222       C  0.11308438  0.25074877  0.22691918     0.19600
F1223       F  0.11722259  0.27896023  0.23469844    -0.13300
F1224       F  0.11868785  0.23777194  0.27639395    -0.15600
F1225       F  0.10047384  0.20515365  0.16254495    -0.15600
F1226       F  0.10149139  0.16393342  0.20457782    -0.13300
C1227       C  0.23238878  0.14136939  0.39503232     0.24700
C1228       C  0.22016116  0.12164231  0.37522258    -0.23400
C1229       C  0.23854116  0.10165760  0.36093319     0.19600
C1230       C  0.26886595  0.10380050  0.36361605     0.24700
C1231       C  0.28112357  0.12599488  0.38056435    -0.23300
C1232       C  0.26268063  0.14341499  0.39779536     0.19600
F1233       F  0.27405208  0.16505502  0.41434286    -0.13300
F1234       F  0.21526155  0.16136270  0.40855173    -0.15600
F1235       F  0.28615784  0.08691248  0.34658365    -0.15600
F1236       F  0.22727191  0.08266582  0.34135988    -0.13300
C1237       C  0.35606592  0.10703260  0.26654710     0.24700
C1238       C  0.37493346  0.12715901  0.27959726    -0.23400
C1239       C  0.39360801  0.14345864  0.26173810     0.19600
C1240       C  0.39106472  0.14223387  0.23138553     0.24700
C1241       C  0.37026706  0.12414925  0.21836390    -0.23300
C1242       C  0.35395326  0.10536430  0.23613043     0.19600
F1243       F  0.33357747  0.08777946  0.22408055    -0.13300
F1244       F  0.33723870  0.09159816  0.28314531    -0.15600
F1245       F  0.40650818  0.16114462  0.21491364    -0.15600
F1246       F  0.41187438  0.16321582  0.27381905    -0.13300
C1247       C  0.38432362  0.48399568  0.14667772     0.24700
C1248       C  0.37516125  0.46859151  0.17141887    -0.23400
C1249       C  0.36490907  0.48431939  0.19561497     0.19600
C1250       C  0.36514496  0.51467579  0.19570553     0.24700
C1251       C  0.37561541  0.53019596  0.17159210    -0.23300
C1252       C  0.38453460  0.51458579  0.14675504     0.19600
F1253       F  0.39491900  0.52884436  0.12317115    -0.13300
F1254       F  0.39457589  0.46950472  0.12306443    -0.15600
F1255       F  0.35504455  0.52893803  0.21954525    -0.15600
F1256       F  0.35463943  0.47024487  0.21939251    -0.13300
C1257       C  0.35575948  0.26966664  0.10666587     0.24700
C1258       C  0.37606926  0.28126531  0.12618407    -0.23400
C1259       C  0.39597812  0.26235881  0.13980492     0.19600
C1260       C  0.39318548  0.23205576  0.13674343     0.24700
C1261       C  0.37048760  0.22045720  0.11998477    -0.23300
C1262       C  0.35320383  0.23949364  0.10336034     0.19600
F1263       F  0.33134939  0.22876683  0.08671782    -0.13300
F1264       F  0.33596912  0.28737112  0.09368980    -0.15600
F1265       F  0.41001863  0.21420998  0.15317621    -0.15600
F1266       F  0.41565489  0.27308110  0.15897983    -0.13300
C1267       C  0.27047505  0.36388117  0.10602529     0.24700
C1268       C  0.28096866  0.37887446  0.13042827    -0.23400
C1269       C  0.26113570  0.39438173  0.14793086     0.19600
C1270       C  0.23113111  0.39163157  0.14357086     0.24700
C1271       C  0.22051307  0.37339797  0.12155079    -0.23300
C1272       C  0.24036846  0.36099727  0.10172084     0.19600
F1273       F  0.23063179  0.34319687  0.08029507    -0.13300
F1274       F  0.28912491  0.34884501  0.08870269    -0.15600
F1275       F  0.21259782  0.40318993  0.16348975    -0.15600
F1276       F  0.27080838  0.40942273  0.17139355    -0.13300
C1277       C  0.39123037  0.24824471  0.27303376     0.24700
C1278       C  0.39367153  0.25617645  0.30237863    -0.23400
C1279       C  0.39936257  0.28528087  0.30969805     0.19600
C1280       C  0.39921967  0.30669865  0.28813408     0.24700
C1281       C  0.39347530  0.29910958  0.25904031    -0.23300
C1282       C  0.39132292  0.26948851  0.25150453     0.19600
F1283       F  0.38711611  0.26122456  0.22348355    -0.13300
F1284       F  0.38653223  0.22009065  0.26540220    -0.15600
F1285       F  0.40141887  0.33503035  0.29622525    -0.15600
F1286       F  0.40159932  0.29346019  0.33795826    -0.13300
C1287       C  0.18979242  0.48545885  0.36267369     0.24700
C1288       C  0.16571193  0.46987295  0.37320392    -0.23400
C1289       C  0.14080473  0.48552107  0.38204935     0.19600
C1290       C  0.14083771  0.51619713  0.38200712     0.24700
C1291       C  0.16578551  0.53159348  0.37322285    -0.23300
C1292       C  0.18985633  0.51582310  0.36275174     0.19600
F1293       F  0.21368276  0.52989750  0.35259099    -0.13300
F1294       F  0.21358728  0.47120965  0.35234731    -0.15600
F1295       F  0.11714462  0.53076014  0.39207071    -0.15600
F1296       F  0.11712830  0.47124051  0.39222047    -0.13300
C1297       C  0.14534686  0.39309233  0.22862856     0.24700
C1298       C  0.12622058  0.37295091  0.21607459    -0.23400
C1299       C  0.10713467  0.35744226  0.23419143     0.19600
C1300       C  0.10944963  0.35962100  0.26453317     0.24700
C1301       C  0.13082284  0.37740311  0.27707469    -0.23300
C1302       C  0.14750862  0.39542474  0.25891222     0.19600
F1303       F  0.16819477  0.41294088  0.27052188    -0.13300
F1304       F  0.16419329  0.40807447  0.21164763    -0.15600
F1305       F  0.09343584  0.34164354  0.28150148    -0.15600
F1306       F  0.08879785  0.33747176  0.22257054    -0.13300
C1307       C  0.10683933  0.26715578  0.35872002     0.24700
C1308       C  0.12874968  0.28036430  0.37529128    -0.23400
C1309       C  0.14612253  0.26293380  0.39346062     0.19600
C1310       C  0.14416979  0.23254029  0.39231053     0.24700
C1311       C  0.12438412  0.21918363  0.37336359    -0.23300
C1312       C  0.10448643  0.23670471  0.35800438     0.19600
F1313       F  0.08542680  0.22423981  0.33925470    -0.13300
F1314       F  0.09019150  0.28341385  0.34056130    -0.15600
F1315       F  0.16418315  0.21622131  0.40667232    -0.15600
F1316       F  0.16747694  0.27530002  0.40960037    -0.13300
C1317       C  0.27514027  0.25328282  0.39637080     0.24700
C1318       C  0.30459083  0.26072877  0.39310259    -0.23400
C1319       C  0.31234480  0.29032925  0.39274745     0.19600
C1320       C  0.29071876  0.31195647  0.39262973     0.24700
C1321       C  0.26114451  0.30419986  0.39280946    -0.23300
C1322       C  0.25364050  0.27479077  0.39609399     0.19600
F1323       F  0.22531936  0.26668936  0.39696886    -0.13300
F1324       F  0.26700226  0.22495127  0.39771695    -0.15600
F1325       F  0.29861415  0.34014750  0.38891067    -0.15600
F1326       F  0.34052897  0.29823720  0.38914184    -0.13300
C1327       C  0.25382217  0.39345736  0.27554143     0.24700
C1328       C  0.26112912  0.39506192  0.30507689    -0.23400
C1329       C  0.29038386  0.39882432  0.31312312     0.19600
C1330       C  0.31227147  0.39748195  0.29193415     0.24700
C1331       C  0.30488867  0.39224945  0.26274354    -0.23300
C1332       C  0.27550500  0.39178740  0.25459287     0.19600
F1333       F  0.26779202  0.38732237  0.22650460    -0.13300
F1334       F  0.22565723  0.39069898  0.26718676    -0.15600
F1335       F  0.34056779  0.39792285  0.30033232    -0.15600
F1336       F  0.29797717  0.40031102  0.34157824    -0.13300
C1337       C  0.51505506  0.61574114  0.14197655     0.24700
C1338       C  0.53120317  0.62750425  0.16514308    -0.23400
C1339       C  0.51616795  0.64063196  0.18839763     0.19600
C1340       C  0.48592064  0.64000508  0.18970060     0.24700
C1341       C  0.46967491  0.62638469  0.16770087    -0.23300
C1342       C  0.48447890  0.61518702  0.14323501     0.19600
F1343       F  0.46954198  0.60227113  0.12132826    -0.13300
F1344       F  0.52879737  0.60327294  0.11899219    -0.15600
F1345       F  0.47253045  0.65258201  0.21285957    -0.15600
F1346       F  0.53085197  0.65377093  0.21037593    -0.13300
C1347       C  0.70968284  0.60307869  0.30875906     0.24700
C1348       C  0.73911496  0.60724366  0.30160370    -0.23400
C1349       C  0.74728040  0.60842508  0.27222626     0.19600
C1350       C  0.72621262  0.60881892  0.25053226     0.24700
C1351       C  0.69657353  0.60771982  0.25774774    -0.23300
C1352       C  0.68846207  0.60325228  0.28686547     0.19600
F1353       F  0.65994472  0.60242478  0.29445258    -0.13300
F1354       F  0.70116253  0.60220019  0.33697101    -0.15600
F1355       F  0.73470641  0.61254017  0.22256270    -0.15600
F1356       F  0.77563846  0.61159560  0.26464508    -0.13300
C1357       C  0.51155680  0.81130613  0.35921225     0.24700
C1358       C  0.52767687  0.83340462  0.37289543    -0.23400
C1359       C  0.51260400  0.85688852  0.38575438     0.19600
C1360       C  0.48199767  0.85752814  0.38594817     0.24700
C1361       C  0.46603072  0.83469477  0.37329254    -0.23300
C1362       C  0.48121214  0.81195672  0.35939740     0.19600
F1363       F  0.46658181  0.79004922  0.34606511    -0.13300
F1364       F  0.52521317  0.78878370  0.34569828    -0.15600
F1365       F  0.46805765  0.87950559  0.40000876    -0.15600
F1366       F  0.52741414  0.87829537  0.39962767    -0.13300
C1367       C  0.60430272  0.71111699  0.30745331     0.24700
C1368       C  0.60469094  0.74073219  0.29992255    -0.23400
C1369       C  0.60314825  0.74866521  0.27049503     0.19600
C1370       C  0.60443839  0.72741706  0.24886761     0.24700
C1371       C  0.60703244  0.69791841  0.25637189    -0.23300
C1372       C  0.60543372  0.68979498  0.28576068     0.19600
F1373       F  0.60850147  0.66148085  0.29362048    -0.13300
F1374       F  0.60647767  0.70285631  0.33566535    -0.15600
F1375       F  0.60515395  0.73578024  0.22061921    -0.15600
F1376       F  0.60270646  0.77715106  0.26269954    -0.13300
C1377       C  0.70982851  0.69082963  0.39449549     0.24700
C1378       C  0.73912108  0.69875554  0.39063000    -0.23400
C1379       C  0.74636724  0.72844704  0.38965868     0.19600
C1380       C  0.72457137  0.74962350  0.38918044     0.24700
C1381       C  0.69515018  0.74152406  0.38977997    -0.23300
C1382       C  0.68793719  0.71214031  0.39407905     0.19600
F1383       F  0.65967632  0.70370884  0.39453907    -0.13300
F1384       F  0.70208871  0.66235960  0.39532949    -0.15600
F1385       F  0.73215166  0.77798664  0.38607921    -0.15600
F1386       F  0.77451684  0.73687679  0.38705367    -0.13300
C1387       C  0.64099998  0.73317804  0.10398363     0.24700
C1388       C  0.62276126  0.71959061  0.12424250    -0.23400
C1389       C  0.60365286  0.73689889  0.14086285     0.19600
C1390       C  0.60527633  0.76736481  0.13983115     0.24700
C1391       C  0.62561876  0.78093821  0.12168797    -0.23300
C1392       C  0.64226277  0.76365657  0.10257858     0.19600
F1393       F  0.66258009  0.77625641  0.08533526    -0.13300
F1394       F  0.66022888  0.71709663  0.08829076    -0.15600
F1395       F  0.58971405  0.78340813  0.15918592    -0.15600
F1396       F  0.58618016  0.72426803  0.16094819    -0.13300
C1397       C  0.60008988  0.86025691  0.25950862     0.24700
C1398       C  0.61941687  0.87491202  0.27812908    -0.23400
C1399       C  0.63882102  0.89516605  0.26630702     0.19600
C1400       C  0.64131602  0.89806611  0.23614169     0.24700
C1401       C  0.62461762  0.88056928  0.21743399    -0.23300
C1402       C  0.60263062  0.86312179  0.22927759     0.19600
F1403       F  0.58649631  0.84575443  0.21171884    -0.13300
F1404       F  0.58137073  0.84031115  0.27046293    -0.15600
F1405       F  0.66282834  0.91496277  0.22517138    -0.15600
F1406       F  0.65813279  0.90905412  0.28374948    -0.13300
C1407       C  0.98564737  0.64464586  0.11542671     0.24700
C1408       C  0.96962857  0.66951307  0.12373811    -0.23400
C1409       C  0.98487721  0.69392103  0.13416229     0.19600
C1410       C  0.01520884  0.69410409  0.13486354     0.24700
C1411       C  0.03142497  0.66990259  0.12501192    -0.23300
C1412       C  0.01622450  0.64485156  0.11600506     0.19600
F1413       F  0.03085245  0.62094505  0.10652913    -0.13300
F1414       F  0.97183295  0.62057127  0.10545047    -0.15600
F1415       F  0.02863878  0.71833641  0.14507410    -0.15600
F1416       F  0.97043141  0.71792834  0.14375313    -0.13300
C1417       C  0.77017234  0.74727244  0.11490916     0.24700
C1418       C  0.79880838  0.75446543  0.10705441    -0.23400
C1419       C  0.80452565  0.78236806  0.09602977     0.19600
C1420       C  0.78269065  0.80377870  0.09636102     0.24700
C1421       C  0.75499130  0.79741230  0.10776803    -0.23300
C1422       C  0.74851735  0.76847953  0.11529261     0.19600
F1423       F  0.72164432  0.76103191  0.12496738    -0.13300
F1424       F  0.76356485  0.72005622  0.12426512    -0.15600
F1425       F  0.78951778  0.83127848  0.08818685    -0.15600
F1426       F  0.83183137  0.78976510  0.08772614    -0.13300
C1427       C  0.76901841  0.60577724  0.14317820     0.24700
C1428       C  0.78180464  0.62411296  0.12254593    -0.23400
C1429       C  0.76392052  0.63761862  0.10166489     0.19600
C1430       C  0.73348848  0.63572792  0.10370858     0.24700
C1431       C  0.72071994  0.62029057  0.12665855    -0.23300
C1432       C  0.73870460  0.60371256  0.14506372     0.19600
F1433       F  0.72682601  0.58848377  0.16730391    -0.13300
F1434       F  0.78566457  0.59316822  0.16403819    -0.15600
F1435       F  0.71667640  0.65197105  0.08568414    -0.15600
F1436       F  0.77582002  0.65558220  0.08157103    -0.13300
C1437       C  0.89614700  0.64280134  0.23636040     0.24700
C1438       C  0.87945860  0.62492934  0.21799822    -0.23400
C1439       C  0.86162850  0.60360411  0.23047565     0.19600
C1440       C  0.85800116  0.60248467  0.26072133     0.24700
C1441       C  0.87208985  0.62272196  0.27882505    -0.23300
C1442       C  0.89225517  0.64195543  0.26654258     0.19600
F1443       F  0.90516444  0.66253280  0.28330700    -0.13300
F1444       F  0.91307526  0.66395055  0.22476969    -0.15600
F1445       F  0.83802493  0.58403047  0.27205986    -0.15600
F1446       F  0.84478909  0.58655142  0.21328008    -0.13300
C1447       C  0.98305000  0.88356872  0.35249191     0.24700
C1448       C  0.96765978  0.87185574  0.32877689    -0.23400
C1449       C  0.98339888  0.85832802  0.30618799     0.19600
C1450       C  0.01369430  0.85854107  0.30612338     0.24700
C1451       C  0.02912164  0.87201374  0.32874716    -0.23300
C1452       C  0.01359674  0.88355648  0.35251056     0.19600
F1453       F  0.02790063  0.89643071  0.37485950    -0.13300
F1454       F  0.96866020  0.89658142  0.37477066    -0.15600
F1455       F  0.02800247  0.84576901  0.28362105    -0.15600
F1456       F  0.96943776  0.84521267  0.28372768    -0.13300
C1457       C  0.89746735  0.77346939  0.24424742     0.24700
C1458       C  0.89236488  0.80261093  0.23658011    -0.23400
C1459       C  0.89054244  0.81016355  0.20705961     0.19600
C1460       C  0.89039513  0.78844830  0.18577417     0.24700
C1461       C  0.89211591  0.75899552  0.19381383    -0.23300
C1462       C  0.89731543  0.75179065  0.22299693     0.19600
F1463       F  0.90034928  0.72358541  0.23115370    -0.13300
F1464       F  0.90069732  0.76580255  0.27251943    -0.15600
F1465       F  0.88509097  0.79604471  0.15778353    -0.15600
F1466       F  0.88543628  0.83813562  0.19901787    -0.13300
C1467       C  0.78894707  0.89552715  0.18490181     0.24700
C1468       C  0.75965166  0.89267571  0.19332176    -0.23400
C1469       C  0.75259466  0.89302566  0.22300950     0.19600
C1470       C  0.77449913  0.89272025  0.24385149     0.24700
C1471       C  0.80381983  0.89277056  0.23547389    -0.23300
C1472       C  0.81097897  0.89561607  0.20596381     0.19600
F1473       F  0.83922040  0.89499337  0.19737623    -0.13300
F1474       F  0.79645300  0.89481847  0.15639423    -0.15600
F1475       F  0.76710181  0.88984884  0.27220998    -0.15600
F1476       F  0.72447534  0.89123830  0.23183236    -0.13300
C1477       C  0.75909474  0.89541418  0.34818037     0.24700
C1478       C  0.77782817  0.87816146  0.36518761    -0.23400
C1479       C  0.76598187  0.86159049  0.38781834     0.19600
C1480       C  0.73568670  0.85953522  0.39101363     0.24700
C1481       C  0.71691345  0.87403216  0.37163993    -0.23300
C1482       C  0.72884863  0.89321646  0.35122800     0.19600
F1483       F  0.71133176  0.90678813  0.33171577    -0.13300
F1484       F  0.77009401  0.91198851  0.32646964    -0.15600
F1485       F  0.72467516  0.84049639  0.41061238    -0.15600
F1486       F  0.78350223  0.84444977  0.40428134    -0.13300
C1487       C  0.85621653  0.76831590  0.39056691     0.24700
C1488       C  0.87499919  0.78087798  0.37016031    -0.23400
C1489       C  0.89436133  0.76277445  0.35473432     0.19600
C1490       C  0.89254267  0.73237990  0.35712895     0.24700
C1491       C  0.87161677  0.71974249  0.37532540    -0.23300
C1492       C  0.85473689  0.73796382  0.39331870     0.19600
F1493       F  0.83404444  0.72627764  0.41075007    -0.13300
F1494       F  0.83681504  0.78520816  0.40516847    -0.15600
F1495       F  0.90850362  0.71539417  0.33893022    -0.15600
F1496       F  0.91242318  0.77442086  0.33457550    -0.13300
C1497       C  0.51688407  0.17890173  0.39866345     0.24700
C1498       C  0.53213626  0.16337155  0.37712941    -0.23400
C1499       C  0.51620401  0.14673016  0.35693312     0.19600
C1500       C  0.48551664  0.14688905  0.35754887     0.24700
C1501       C  0.47042656  0.16366170  0.37838651    -0.23300
C1502       C  0.48657139  0.17907632  0.39926549     0.19600
F1503       F  0.47292463  0.19443349  0.42053742    -0.13300
F1504       F  0.53144192  0.19396532  0.41945716    -0.15600
F1505       F  0.47063556  0.13190149  0.33696324    -0.15600
F1506       F  0.53022046  0.13152676  0.33582168    -0.13300
C1507       C  0.63194037  0.48449257  0.19123798     0.24700
C1508       C  0.62523437  0.46870402  0.16594252    -0.23400
C1509       C  0.62014004  0.48412284  0.13998872     0.19600
C1510       C  0.62024202  0.51479019  0.13984615     0.24700
C1511       C  0.62556511  0.53048429  0.16564462    -0.23300
C1512       C  0.63220096  0.51478938  0.19109568     0.19600
F1513       F  0.63897826  0.52874640  0.21622178    -0.13300
F1514       F  0.63842909  0.47055555  0.21641806    -0.15600
F1515       F  0.61390456  0.52901380  0.11482365    -0.15600
F1516       F  0.61374698  0.46961798  0.11510810    -0.13300
C1517       C  0.51657385  0.39250355  0.19220226     0.24700
C1518       C  0.53182220  0.37919764  0.16926863    -0.23400
C1519       C  0.51602505  0.36718137  0.14598081     0.19600
C1520       C  0.48540719  0.36717043  0.14654632     0.24700
C1521       C  0.47032540  0.37925507  0.17037585    -0.23300
C1522       C  0.48639495  0.39253168  0.19277517     0.19600
F1523       F  0.47291144  0.40599498  0.21539159    -0.13300
F1524       F  0.53095186  0.40595797  0.21420623    -0.15600
F1525       F  0.47064424  0.35445731  0.12441355    -0.15600
F1526       F  0.53013249  0.35451599  0.12333256    -0.13300
C1527       C  0.61473673  0.27002078  0.24938899     0.24700
C1528       C  0.61378957  0.29979669  0.25673489    -0.23400
C1529       C  0.60997246  0.30762205  0.28615504     0.19600
C1530       C  0.60945998  0.28618533  0.30783411     0.24700
C1531       C  0.61282801  0.25668054  0.30045664    -0.23300
C1532       C  0.61445682  0.24878364  0.27100952     0.19600
F1533       F  0.61756672  0.22041295  0.26323982    -0.13300
F1534       F  0.61754870  0.26137760  0.22130374    -0.15600
F1535       F  0.60870997  0.29447041  0.33614249    -0.15600
F1536       F  0.60944443  0.33603515  0.29428515    -0.13300
C1537       C  0.64376272  0.98507890  0.11763333     0.24700
C1538       C  0.66958371  0.96894242  0.12181222    -0.23400
C1539       C  0.69550570  0.98419278  0.12740800     0.19600
C1540       C  0.69601975  0.01447188  0.12743914     0.24700
C1541       C  0.67061799  0.03080156  0.12183511    -0.23300
C1542       C  0.64427773  0.01573250  0.11765294     0.19600
F1543       F  0.61920543  0.03053512  0.11256052    -0.13300
F1544       F  0.61822917  0.97129853  0.11245635    -0.15600
F1545       F  0.72176532  0.02773982  0.13307461    -0.15600
F1546       F  0.72076710  0.96983651  0.13299833    -0.13300
C1547       C  0.60915661  0.14084254  0.22986104     0.24700
C1548       C  0.62966083  0.12211877  0.21710428    -0.23400
C1549       C  0.64471483  0.10217649  0.23480137     0.19600
C1550       C  0.64191836  0.10339567  0.26513158     0.24700
C1551       C  0.62405983  0.12461542  0.27803498    -0.23300
C1552       C  0.60628550  0.14198680  0.26013394     0.19600
F1553       F  0.58908272  0.16287628  0.27212854    -0.13300
F1554       F  0.59484169  0.16070443  0.21334502    -0.15600
F1555       F  0.65964129  0.08672029  0.28185906    -0.15600
F1556       F  0.66482869  0.08402229  0.22290962    -0.13300
C1557       C  0.60887560  0.23318951  0.13874775     0.24700
C1558       C  0.63016068  0.22029438  0.12098954    -0.23400
C1559       C  0.64701981  0.23813287  0.10284262     0.19600
C1560       C  0.64499950  0.26848054  0.10488124     0.24700
C1561       C  0.62566973  0.28142060  0.12468330    -0.23300
C1562       C  0.60649763  0.26361509  0.14041667     0.19600
F1563       F  0.58828723  0.27563250  0.16035918    -0.13300
F1564       F  0.59310260  0.21653608  0.15722686    -0.15600
F1565       F  0.66433096  0.28514144  0.09014784    -0.15600
F1566       F  0.66812699  0.22617177  0.08593519    -0.13300
C1567       C  0.98586257  0.11735446  0.35290161     0.24700
C1568       C  0.97061297  0.12701792  0.32815386    -0.23400
C1569       C  0.98657770  0.13804209  0.30452478     0.19600
C1570       C  0.01685178  0.13815263  0.30501241     0.24700
C1571       C  0.03222052  0.12722686  0.32911493    -0.23300
C1572       C  0.01641573  0.11746382  0.35337660     0.19600
F1573       F  0.03045190  0.10652512  0.37688963    -0.13300
F1574       F  0.97133111  0.10635377  0.37603622    -0.15600
F1575       F  0.03114271  0.14875763  0.28149476    -0.15600
F1576       F  0.97293582  0.14855918  0.28055652    -0.13300
C1577       C  0.88247527  0.01540445  0.35467795     0.24700
C1578       C  0.87672541  0.03106552  0.32898432    -0.23400
C1579       C  0.86889517  0.01548711  0.30383079     0.19600
C1580       C  0.86807095  0.98522255  0.30387217     0.24700
C1581       C  0.87511286  0.96935765  0.32902730    -0.23300
C1582       C  0.88166877  0.98475051  0.35469511     0.19600
F1583       F  0.88863355  0.97020043  0.37936581    -0.13300
F1584       F  0.89014036  0.02961616  0.37936693    -0.15600
F1585       F  0.86031549  0.97138707  0.27896558    -0.15600
F1586       F  0.86188893  0.02954754  0.27885760    -0.13300
C1587       C  0.77395806  0.10853780  0.24667205     0.24700
C1588       C  0.80351883  0.10668149  0.23923595    -0.23400
C1589       C  0.81139256  0.10085546  0.21028441     0.19600
C1590       C  0.79008824  0.10040386  0.18855625     0.24700
C1591       C  0.76083197  0.10575619  0.19571732    -0.23300
C1592       C  0.75276676  0.10790897  0.22509946     0.19600
F1593       F  0.72449027  0.11192297  0.23271024    -0.13300
F1594       F  0.76573410  0.11326615  0.27462458    -0.15600
F1595       F  0.79846375  0.09826991  0.16036022    -0.15600
F1596       F  0.83983712  0.09911564  0.20255207    -0.13300
C1597       C  0.73434805  0.10169124  0.35765538     0.24700
C1598       C  0.72095323  0.12164778  0.37655046    -0.23400
C1599       C  0.73859579  0.13835195  0.39519687     0.19600
C1600       C  0.76901073  0.13782890  0.39232725     0.24700
C1601       C  0.78214640  0.12045245  0.37089438    -0.23300
C1602       C  0.76472213  0.10107693  0.35487319     0.19600
F1603       F  0.77690300  0.08420277  0.33386937    -0.13300
F1604       F  0.71793784  0.08571568  0.33906870    -0.15600
F1605       F  0.78521649  0.15713330  0.40766047    -0.15600
F1606       F  0.72622410  0.15822929  0.41327665    -0.13300
C1607       C  0.80625174  0.48451615  0.36241213     0.24700
C1608       C  0.83031971  0.46863337  0.37272467    -0.23400
C1609       C  0.85514626  0.48402413  0.38192716     0.19600
C1610       C  0.85526691  0.51469317  0.38207531     0.24700
C1611       C  0.83056463  0.53047636  0.37298349    -0.23300
C1612       C  0.80640636  0.51491738  0.36244176     0.19600
F1613       F  0.78269706  0.52920036  0.35204227    -0.13300
F1614       F  0.78238708  0.47055641  0.35211341    -0.15600
F1615       F  0.87893693  0.52885265  0.39248042    -0.15600
F1616       F  0.87870582  0.46944291  0.39219046    -0.13300
C1617       C  0.71161272  0.39934387  0.30744255     0.24700
C1618       C  0.74035118  0.39168390  0.30012338    -0.23400
C1619       C  0.74800703  0.38847862  0.27074423     0.19600
C1620       C  0.72677172  0.38956645  0.24934250     0.24700
C1621       C  0.69750618  0.39362103  0.25694434    -0.23300
C1622       C  0.69016864  0.40028253  0.28582559     0.19600
F1623       F  0.66194472  0.40428553  0.29355845    -0.13300
F1624       F  0.70367616  0.40256055  0.33566314    -0.15600
F1625       F  0.73441080  0.38397008  0.22137363    -0.15600
F1626       F  0.77571407  0.38180543  0.26293214    -0.13300
C1627       C  0.86179369  0.23296875  0.39167948     0.24700
C1628       C  0.87936000  0.21955441  0.37059966    -0.23400
C1629       C  0.89748523  0.23697686  0.35325790     0.19600
C1630       C  0.89521453  0.26739566  0.35429832     0.24700
C1631       C  0.87518894  0.28074667  0.37310092    -0.23300
C1632       C  0.85985569  0.26341482  0.39303955     0.19600
F1633       F  0.84002307  0.27583427  0.41111430    -0.13300
F1634       F  0.84372731  0.21667713  0.40829195    -0.15600
F1635       F  0.90970906  0.28355951  0.33438695    -0.15600
F1636       F  0.91443513  0.22446713  0.33252462    -0.13300
C1637       C  0.75166557  0.26847174  0.38776344     0.24700
C1638       C  0.74333379  0.29793118  0.38958463    -0.23400
C1639       C  0.71416929  0.30479138  0.39599830     0.19600
C1640       C  0.69315947  0.28279039  0.39678799     0.24700
C1641       C  0.70109371  0.25370701  0.39109228    -0.23300
C1642       C  0.73078831  0.24659498  0.38863737     0.19600
F1643       F  0.73948459  0.21855045  0.38484471    -0.13300
F1644       F  0.77985039  0.26086726  0.38304070    -0.15600
F1645       F  0.66478941  0.29039485  0.40003059    -0.15600
F1646       F  0.70540541  0.33292996  0.39842322    -0.13300
C1647       C  0.98522784  0.31321737  0.14143256     0.24700
C1648       C  0.96963971  0.33272844  0.12374293    -0.23400
C1649       C  0.98511816  0.35358175  0.10762513     0.19600
C1650       C  0.01567914  0.35373730  0.10790965     0.24700
C1651       C  0.03116836  0.33302043  0.12431534    -0.23300
C1652       C  0.01557117  0.31338188  0.14171756     0.19600
F1653       F  0.02977901  0.29384866  0.15873832    -0.13300
F1654       F  0.97104416  0.29355546  0.15819181    -0.15600
F1655       F  0.03005448  0.37276977  0.09063316    -0.15600
F1656       F  0.97078490  0.37250638  0.09007299    -0.13300
C1657       C  0.81301737  0.21112103  0.09683853     0.24700
C1658       C  0.80586095  0.24050433  0.10140900    -0.23400
C1659       C  0.77652788  0.24858261  0.10433915     0.19600
C1660       C  0.75497982  0.22744246  0.10606041     0.24700
C1661       C  0.76239375  0.19775970  0.10494452    -0.23300
C1662       C  0.79133349  0.18977227  0.09853891     0.19600
F1663       F  0.79917614  0.16129810  0.09703958    -0.13300
F1664       F  0.84125198  0.20283826  0.09409233    -0.15600
F1665       F  0.72708658  0.23597694  0.11088157    -0.15600
F1666       F  0.76905478  0.27695082  0.10817392    -0.13300
C1667       C  0.89081299  0.19082702  0.20830927     0.24700
C1668       C  0.89032382  0.19878613  0.23780369    -0.23400
C1669       C  0.89275717  0.22833369  0.24535738     0.19600
C1670       C  0.89296201  0.24969778  0.22383469     0.24700
C1671       C  0.89046588  0.24191878  0.19437138    -0.23300
C1672       C  0.89083231  0.21222424  0.18672148     0.19600
F1673       F  0.88816441  0.20386592  0.15855587    -0.13300
F1674       F  0.88811337  0.16249659  0.20032670    -0.15600
F1675       F  0.89398276  0.27811935  0.23192600    -0.15600
F1676       F  0.89335965  0.23660699  0.27366466    -0.13300
C1677       C  0.85267132  0.39297393  0.22729849     0.24700
C1678       C  0.87349157  0.37461965  0.21445991    -0.23400
C1679       C  0.89429803  0.36096329  0.23230044     0.19600
C1680       C  0.89214986  0.36291843  0.26270403     0.24700
C1681       C  0.86935971  0.37881923  0.27552026    -0.23300
C1682       C  0.85088565  0.39535870  0.25756858     0.19600
F1683       F  0.82879292  0.41104262  0.26945518    -0.13300
F1684       F  0.83201415  0.40596159  0.21065547    -0.15600
F1685       F  0.90989001  0.34629530  0.27945474    -0.15600
F1686       F  0.91428405  0.34266766  0.22042069    -0.13300
C1687       C  0.76953907  0.39282480  0.13608075     0.24700
C1688       C  0.78033070  0.37112109  0.11750153    -0.23400
C1689       C  0.76073111  0.35567996  0.09977221     0.19600
C1690       C  0.73065002  0.35917773  0.10337379     0.24700
C1691       C  0.71990936  0.37793291  0.12495589    -0.23300
C1692       C  0.73948292  0.39609195  0.13991787     0.19600
F1693       F  0.72959110  0.41429026  0.16101691    -0.13300
F1694       F  0.78793279  0.40765765  0.15373936    -0.15600
F1695       F  0.71229925  0.34112637  0.08896371    -0.15600
F1696       F  0.77071609  0.33461099  0.08157323    -0.13300
C1697       C  0.61305949  0.85704680  0.48194776     0.24700
C1698       C  0.62465227  0.83354445  0.46600268    -0.23400
C1699       C  0.63844065  0.81074789  0.48098506     0.19600
C1700       C  0.63911707  0.81043824  0.51122344     0.24700
C1701       C  0.62566642  0.83275967  0.52742315    -0.23300
C1702       C  0.61348295  0.85663178  0.51249202     0.19600
F1703       F  0.60052184  0.87869116  0.52733437    -0.13300
F1704       F  0.59975742  0.87947050  0.46807002    -0.15600
F1705       F  0.65270097  0.78789955  0.52468312    -0.15600
F1706       F  0.65107169  0.78838717  0.46625804    -0.13300
C1707       C  0.60491516  0.68876945  0.70791411     0.24700
C1708       C  0.60957492  0.69734015  0.73696190    -0.23400
C1709       C  0.61036438  0.72714275  0.74376489     0.19600
C1710       C  0.60983455  0.74783840  0.72173460     0.24700
C1711       C  0.60845267  0.73917991  0.69249813    -0.23300
C1712       C  0.60438774  0.70964970  0.68575170     0.19600
F1713       F  0.60312949  0.70074020  0.65765022    -0.13300
F1714       F  0.60391754  0.66014729  0.70060896    -0.15600
F1715       F  0.61289651  0.77635798  0.72883173    -0.15600
F1716       F  0.61354115  0.73621762  0.77166240    -0.13300
C1717       C  0.80990964  0.64029118  0.51404119     0.24700
C1718       C  0.83240589  0.62628468  0.52939885    -0.23400
C1719       C  0.85596442  0.61453227  0.51362595     0.19600
C1720       C  0.85577549  0.61481902  0.48304477     0.24700
C1721       C  0.83201996  0.62685861  0.46781939    -0.23300
C1722       C  0.80970071  0.64053482  0.48374588     0.19600
F1723       F  0.78729885  0.65398243  0.46993079    -0.13300
F1724       F  0.78772298  0.65356757  0.52842100    -0.15600
F1725       F  0.87793862  0.60181850  0.46842685    -0.15600
F1726       F  0.87830417  0.60127487  0.52767555    -0.13300
C1727       C  0.75010374  0.72660252  0.60501356     0.24700
C1728       C  0.74206466  0.69712703  0.60444859    -0.23400
C1729       C  0.71294224  0.68984138  0.59867032     0.19600
C1730       C  0.69163360  0.71164032  0.59755856     0.24700
C1731       C  0.69930033  0.74091154  0.60215505    -0.23300
C1732       C  0.72892163  0.74831499  0.60371611     0.19600
F1733       F  0.73723330  0.77652914  0.60634253    -0.13300
F1734       F  0.77828021  0.73440083  0.60893789    -0.15600
F1735       F  0.66330251  0.70374851  0.59534953    -0.15600
F1736       F  0.70455534  0.66157037  0.59740006    -0.13300
C1737       C  0.72579335  0.60630901  0.74604048     0.24700
C1738       C  0.69620956  0.60375402  0.73881524    -0.23400
C1739       C  0.68855616  0.59766977  0.70982226     0.19600
C1740       C  0.70991165  0.59781255  0.68795507     0.24700
C1741       C  0.73901952  0.60402217  0.69498085    -0.23300
C1742       C  0.74694661  0.60646067  0.72437479     0.19600
F1743       F  0.77505147  0.61137308  0.73197288    -0.13300
F1744       F  0.73403753  0.61110210  0.77396440    -0.15600
F1745       F  0.70165458  0.59512639  0.65978386    -0.15600
F1746       F  0.66019173  0.59488030  0.70220358    -0.13300
C1747       C  0.68623666  0.85684694  0.98299765     0.24700
C1748       C  0.66512147  0.87264664  0.96744539    -0.23400
C1749       C  0.64273437  0.88683507  0.98291737     0.19600
C1750       C  0.64260344  0.88660620  0.01345422     0.24700
C1751       C  0.66488409  0.87226021  0.02883680    -0.23300
C1752       C  0.68616028  0.85672290  0.01322960     0.19600
F1753       F  0.70740639  0.84175359  0.02731279    -0.13300
F1754       F  0.70749463  0.84185179  0.96888604    -0.15600
F1755       F  0.62189500  0.90200741  0.02789459    -0.15600
F1756       F  0.62214900  0.90247230  0.96863162    -0.13300
C1757       C  0.60687663  0.85730223  0.76594984     0.24700
C1758       C  0.62789429  0.87588156  0.77792017    -0.23400
C1759       C  0.64413784  0.89376261  0.75923417     0.19600
C1760       C  0.64177919  0.89076352  0.72902579     0.24700
C1761       C  0.62298287  0.86995978  0.71707777    -0.23300
C1762       C  0.60444062  0.85437354  0.73570045     0.19600
F1763       F  0.58640921  0.83381146  0.72464621    -0.13300
F1764       F  0.59151825  0.83920815  0.78340610    -0.15600
F1765       F  0.66062039  0.90530179  0.71165476    -0.15600
F1766       F  0.66490501  0.91153709  0.77029987    -0.13300
C1767       C  0.63997374  0.73291459  0.89134373     0.24700
C1768       C  0.62285595  0.72020663  0.86957364    -0.23400
C1769       C  0.60438724  0.73799989  0.85289369     0.19600
C1770       C  0.60539992  0.76833572  0.85575005     0.24700
C1771       C  0.62480992  0.78121541  0.87540645    -0.23300
C1772       C  0.64075110  0.76326935  0.89440861     0.19600
F1773       F  0.66016039  0.77525150  0.91311735    -0.13300
F1774       F  0.65860461  0.71625108  0.90708105    -0.15600
F1775       F  0.59048005  0.78514464  0.83661027    -0.15600
F1776       F  0.58813550  0.72617268  0.83129695    -0.13300
C1777       C  0.85985370  0.68685305  0.98341879     0.24700
C1778       C  0.87276167  0.66388528  0.96776515    -0.23400
C1779       C  0.88437637  0.64005285  0.98316777     0.19600
C1780       C  0.88452896  0.64009049  0.01370272     0.24700
C1781       C  0.87310934  0.66396838  0.02918836    -0.23300
C1782       C  0.86000683  0.68687841  0.01367695     0.19600
F1783       F  0.84751349  0.70965105  0.02788764    -0.13300
F1784       F  0.84720477  0.70958604  0.96938889    -0.15600
F1785       F  0.89737686  0.61768483  0.02801546    -0.15600
F1786       F  0.89710484  0.61757853  0.96875214    -0.13300
C1787       C  0.85662448  0.60011736  0.76693736     0.24700
C1788       C  0.87456256  0.62107257  0.77991094    -0.23400
C1789       C  0.89283752  0.63790450  0.76214455     0.19600
C1790       C  0.89059270  0.63635987  0.73181429     0.24700
C1791       C  0.87010245  0.61788021  0.71886773    -0.23300
C1792       C  0.85439502  0.59854030  0.73657962     0.19600
F1793       F  0.83423654  0.58065872  0.72458591    -0.13300
F1794       F  0.83853274  0.58387838  0.78357829    -0.15600
F1795       F  0.90537941  0.65580688  0.71535018    -0.15600
F1796       F  0.90997295  0.65868225  0.77420264    -0.13300
C1797       C  0.76058645  0.63796127  0.89718011     0.24700
C1798       C  0.77886558  0.62125340  0.87906712    -0.23400
C1799       C  0.76631173  0.60090504  0.86015560     0.19600
C1800       C  0.73609265  0.60040978  0.85627603     0.24700
C1801       C  0.71810976  0.62002349  0.87151870    -0.23300
C1802       C  0.73033271  0.63739206  0.89339270     0.19600
F1803       F  0.71349525  0.65671033  0.90817769    -0.13300
F1804       F  0.77226789  0.65794115  0.91550781    -0.15600
F1805       F  0.72471122  0.58337562  0.83503620    -0.15600
F1806       F  0.78346238  0.58473281  0.84229899    -0.13300
C1807       C  0.77112309  0.74892990  0.89238885     0.24700
C1808       C  0.80071045  0.75614168  0.89041724    -0.23400
C1809       C  0.80894871  0.78555727  0.89189300     0.19600
C1810       C  0.78771916  0.80749864  0.89225742     0.24700
C1811       C  0.75804384  0.80022078  0.89113686    -0.23300
C1812       C  0.74996661  0.77077908  0.89284725     0.19600
F1813       F  0.72148028  0.76310984  0.89300098    -0.13300
F1814       F  0.76263817  0.72065568  0.89200158    -0.15600
F1815       F  0.79622968  0.83569449  0.89036618    -0.15600
F1816       F  0.83736556  0.79315897  0.88964724    -0.13300
C1817       C  0.89281580  0.76120126  0.64409075     0.24700
C1818       C  0.87335466  0.77851020  0.62794744    -0.23400
C1819       C  0.85522027  0.76503774  0.60747760     0.19600
C1820       C  0.85482067  0.73462278  0.60494798     0.24700
C1821       C  0.87183974  0.71720510  0.62347967    -0.23300
C1822       C  0.89192868  0.73072344  0.64201615     0.19600
F1823       F  0.90809804  0.71445555  0.66060374    -0.13300
F1824       F  0.91003274  0.77365498  0.66455648    -0.15600
F1825       F  0.83497413  0.72200890  0.58713749    -0.15600
F1826       F  0.83546449  0.78106243  0.59246765    -0.13300
C1827       C  0.88245897  0.76620206  0.74836164     0.24700
C1828       C  0.88713254  0.79540705  0.75634946    -0.23400
C1829       C  0.89686738  0.80163073  0.78467231     0.19600
C1830       C  0.89788801  0.77960068  0.80561471     0.24700
C1831       C  0.88907581  0.75120279  0.79844910    -0.23300
C1832       C  0.88344537  0.74431975  0.76920898     0.19600
F1833       F  0.87678143  0.71667614  0.76113871    -0.13300
F1834       F  0.87504409  0.75899225  0.72071643    -0.15600
F1835       F  0.90451652  0.78674284  0.83344515    -0.15600
F1836       F  0.90263841  0.82938787  0.79291887    -0.13300
C1837       C  0.75980279  0.89762564  0.64050113     0.24700
C1838       C  0.77860505  0.87836957  0.62575610    -0.23400
C1839       C  0.76693512  0.85956115  0.60475515     0.19600
C1840       C  0.73670009  0.85741496  0.60133725     0.24700
C1841       C  0.71779670  0.87402222  0.61888624    -0.23300
C1842       C  0.72957547  0.89549370  0.63704765     0.19600
F1843       F  0.71183681  0.91153093  0.65443916    -0.13300
F1844       F  0.77053744  0.91584406  0.66108677    -0.15600
F1845       F  0.72582128  0.83623511  0.58387836    -0.15600
F1846       F  0.78446659  0.84028396  0.59073034    -0.13300
C1847       C  0.77092208  0.89140570  0.75203421     0.24700
C1848       C  0.80047204  0.89339390  0.75950541    -0.23400
C1849       C  0.80817198  0.89953292  0.78844300     0.19600
C1850       C  0.78681506  0.89952233  0.81016036     0.24700
C1851       C  0.75779870  0.89331687  0.80294979    -0.23300
C1852       C  0.74977585  0.89115319  0.77361132     0.19600
F1853       F  0.72168693  0.88621122  0.76602340    -0.13300
F1854       F  0.76273137  0.88710616  0.72401193    -0.15600
F1855       F  0.79498287  0.90205511  0.83837689    -0.15600
F1856       F  0.83652868  0.90210335  0.79617377    -0.13300
C1857       C  0.18270236  0.64571815  0.51409362     0.24700
C1858       C  0.16455814  0.62701270  0.52996050    -0.23400
C1859       C  0.14467325  0.60932362  0.51481366     0.19600
C1860       C  0.14440469  0.60904210  0.48426393     0.24700
C1861       C  0.16401479  0.62643324  0.46856683    -0.23300
C1862       C  0.18246047  0.64539356  0.48382351     0.19600
F1863       F  0.20086333  0.66327127  0.46931456    -0.13300
F1864       F  0.20130521  0.66394939  0.52796015    -0.15600
F1865       F  0.12652895  0.59030624  0.47014326    -0.15600
F1866       F  0.12702959  0.59083143  0.52946367    -0.13300
C1867       C  0.48364569  0.85474492  0.63129481     0.24700
C1868       C  0.46749624  0.83204561  0.61852061    -0.23400
C1869       C  0.48283068  0.80898257  0.60520136     0.19600
C1870       C  0.51309503  0.80819249  0.60508656     0.24700
C1871       C  0.52950523  0.83049409  0.61823733    -0.23300
C1872       C  0.51433690  0.85397399  0.63118344     0.19600
F1873       F  0.52908744  0.87589851  0.64428260    -0.13300
F1874       F  0.46982791  0.87727232  0.64457355    -0.15600
F1875       F  0.52619977  0.78536925  0.59152781    -0.15600
F1876       F  0.46856944  0.78697966  0.59162032    -0.13300
C1877       C  0.35694303  0.81411888  0.51360397     0.24700
C1878       C  0.37006524  0.83684013  0.52929748    -0.23400
C1879       C  0.38136359  0.86075601  0.51391439     0.19600
C1880       C  0.38122245  0.86089264  0.48334296     0.24700
C1881       C  0.36977269  0.83712143  0.46777858    -0.23300
C1882       C  0.35675568  0.81428093  0.48332369     0.19600
F1883       F  0.34403240  0.79173270  0.46912604    -0.13300
F1884       F  0.34445492  0.79139577  0.52763853    -0.15600
F1885       F  0.39382305  0.88336957  0.46906266    -0.15600
F1886       F  0.39409405  0.88311797  0.52835312    -0.13300
C1887       C  0.28645824  0.69252242  0.60515496     0.24700
C1888       C  0.25694128  0.69943299  0.60976891    -0.23400
C1889       C  0.24857082  0.72888372  0.61151551     0.19600
C1890       C  0.26947788  0.75076110  0.61151691     0.24700
C1891       C  0.29912178  0.74369107  0.60944667    -0.23300
C1892       C  0.30742175  0.71455672  0.60499250     0.19600
F1893       F  0.33599508  0.70710577  0.60366559    -0.13300
F1894       F  0.29541837  0.66436356  0.60381320    -0.15600
F1895       F  0.26086652  0.77880670  0.61534729    -0.15600
F1896       F  0.22023553  0.73646771  0.61503730    -0.13300
C1897       C  0.48350741  0.61335106  0.85137261     0.24700
C1898       C  0.46806831  0.62858923  0.82975215    -0.23400
C1899       C  0.48378611  0.64562986  0.80983166     0.19600
C1900       C  0.51415006  0.64570489  0.81005082     0.24700
C1901       C  0.52968987  0.62894705  0.83032353    -0.23300
C1902       C  0.51410987  0.61356411  0.85167614     0.19600
F1903       F  0.52844488  0.59713350  0.87156227    -0.13300
F1904       F  0.46913058  0.59669463  0.87095300    -0.15600
F1905       F  0.52844514  0.66187790  0.78998682    -0.15600
F1906       F  0.46969676  0.66188214  0.78960521    -0.13300
C1907       C  0.31495831  0.60180119  0.70254138     0.24700
C1908       C  0.30704445  0.60211292  0.73204037    -0.23400
C1909       C  0.27776559  0.59838545  0.73972011     0.19600
C1910       C  0.25633935  0.59780146  0.71835003     0.24700
C1911       C  0.26387239  0.60105134  0.68902193    -0.23300
C1912       C  0.29336685  0.60131821  0.68103018     0.19600
F1913       F  0.30108077  0.60475388  0.65278826    -0.13300
F1914       F  0.34313379  0.60560871  0.69464818    -0.15600
F1915       F  0.22796366  0.59688949  0.72642549    -0.15600
F1916       F  0.26970648  0.59793009  0.76806522    -0.13300
C1917       C  0.38916211  0.72901420  0.74639764     0.24700
C1918       C  0.38901745  0.69973624  0.73752730    -0.23400
C1919       C  0.39206167  0.69302936  0.70787713     0.19600
C1920       C  0.39217943  0.71529495  0.68721561     0.24700
C1921       C  0.38928609  0.74452575  0.69599286    -0.23300
C1922       C  0.38934754  0.75123369  0.72581637     0.19600
F1923       F  0.38760142  0.77928526  0.73503189    -0.13300
F1924       F  0.38725337  0.73609303  0.77498593    -0.15600
F1925       F  0.39177536  0.70802240  0.65862311    -0.15600
F1926       F  0.39161319  0.66495161  0.69863622    -0.13300
C1927       C  0.01361674  0.85675409  0.69252127     0.24700
C1928       C  0.02899951  0.87042593  0.66990471    -0.23400
C1929       C  0.01311950  0.88217090  0.64648290     0.19600
C1930       C  0.98254639  0.88159987  0.64651339     0.24700
C1931       C  0.96727159  0.86930100  0.66996989    -0.23300
C1932       C  0.98327148  0.85615672  0.69252236     0.19600
F1933       F  0.96952384  0.84292587  0.71499563    -0.13300
F1934       F  0.02793176  0.84413973  0.71504760    -0.15600
F1935       F  0.96795359  0.89459660  0.62441966    -0.15600
F1936       F  0.02704421  0.89570752  0.62434560    -0.13300
C1937       C  0.10641359  0.76175510  0.64610497     0.24700
C1938       C  0.12514847  0.77904985  0.62926989    -0.23400
C1939       C  0.14400920  0.76528331  0.60951293     0.19600
C1940       C  0.14571140  0.73478661  0.60824333     0.24700
C1941       C  0.12921779  0.71756693  0.62730641    -0.23300
C1942       C  0.10872514  0.73124506  0.64544389     0.19600
F1943       F  0.09288013  0.71520787  0.66439923    -0.13300
F1944       F  0.08825154  0.77448273  0.66564698    -0.15600
F1945       F  0.16584310  0.72212249  0.59068780    -0.15600
F1946       F  0.16283549  0.78137194  0.59355719    -0.13300
C1947       C  0.26569259  0.89886023  0.63485283     0.24700
C1948       C  0.27833729  0.87589850  0.61911901    -0.23400
C1949       C  0.26009317  0.85733790  0.60296404     0.19600
C1950       C  0.22978413  0.85904668  0.60586944     0.24700
C1951       C  0.21728657  0.87944864  0.62486988    -0.23300
C1952       C  0.23531560  0.90057731  0.63776841     0.19600
F1953       F  0.22370035  0.92062939  0.65613930    -0.13300
F1954       F  0.28270031  0.91704455  0.65065277    -0.15600
F1955       F  0.21305980  0.83802307  0.59365963    -0.15600
F1956       F  0.27178217  0.83490344  0.58760487    -0.13300
C1957       C  0.13700571  0.64412790  0.01370057     0.24700
C1958       C  0.11760940  0.66193198  0.02948239    -0.23400
C1959       C  0.09673455  0.67830971  0.01415304     0.19600
C1960       C  0.09673995  0.67885828  0.98391540     0.24700
C1961       C  0.11732644  0.66272511  0.96802400    -0.23300
C1962       C  0.13680071  0.64446671  0.98312314     0.19600
F1963       F  0.15658044  0.62817211  0.96837454    -0.13300
F1964       F  0.15705841  0.62760831  0.02774928    -0.15600
F1965       F  0.07642353  0.69529926  0.97010586    -0.15600
F1966       F  0.07624055  0.69412231  0.02851305    -0.13300
C1967       C  0.01371613  0.63983122  0.88156332     0.24700
C1968       C  0.02872300  0.66490464  0.87236815    -0.23400
C1969       C  0.01257805  0.68854979  0.86149324     0.19600
C1970       C  0.98231774  0.68793264  0.86134516     0.24700
C1971       C  0.96715964  0.66367577  0.87212678    -0.23300
C1972       C  0.98314598  0.63923094  0.88143642     0.19600
F1973       F  0.96927747  0.61541698  0.89187092    -0.13300
F1974       F  0.02849042  0.61650178  0.89208286    -0.15600
F1975       F  0.96780292  0.71144633  0.85079899    -0.15600
F1976       F  0.02607263  0.71261755  0.85108809    -0.13300
C1977       C  0.10726002  0.63500185  0.73040167     0.24700
C1978       C  0.12971296  0.61728826  0.71954897    -0.23400
C1979       C  0.14475809  0.59884053  0.73881385     0.19600
C1980       C  0.13995114  0.60075924  0.76879799     0.24700
C1981       C  0.12042757  0.62148181  0.77989377    -0.23300
C1982       C  0.10273362  0.63718162  0.76045532     0.19600
F1983       F  0.08388644  0.65756625  0.77072131    -0.13300
F1984       F  0.09272753  0.65332778  0.71238345    -0.15600
F1985       F  0.15737280  0.58551095  0.78712595    -0.15600
F1986       F  0.16647858  0.58140485  0.72884825    -0.13300
C1987       C  0.22876263  0.60219622  0.85393540     0.24700
C1988       C  0.21718753  0.62224796  0.87386959    -0.23400
C1989       C  0.23627750  0.63771073  0.89207857     0.19600
C1990       C  0.26647174  0.63574933  0.88801678     0.24700
C1991       C  0.27788189  0.61830312  0.86565290    -0.23300
C1992       C  0.25890912  0.60024304  0.84985758     0.19600
F1993       F  0.26940346  0.58326202  0.82806994    -0.13300
F1994       F  0.21083635  0.58759620  0.83560656    -0.15600
F1995       F  0.28413740  0.65394551  0.90307328    -0.15600
F1996       F  0.22554007  0.65768851  0.91106733    -0.13300
C1997       C  0.10926280  0.75006382  0.77134772     0.24700
C1998       C  0.10758668  0.75748051  0.80096418    -0.23400
C1999       C  0.10441469  0.78696201  0.80871375     0.19600
C2000       C  0.10607112  0.80871902  0.78741173     0.24700
C2001       C  0.11099606  0.80125309  0.75809129    -0.23300
C2002       C  0.11112207  0.77164413  0.75020188     0.19600
F2003       F  0.11466729  0.76342254  0.72208231    -0.13300
F2004       F  0.11112758  0.72175503  0.76295796    -0.15600
F2005       F  0.10557080  0.83702887  0.79589126    -0.15600
F2006       F  0.10266561  0.79491397  0.83706987    -0.13300
C2007       C  0.30618980  0.86149581  0.98303306     0.24700
C2008       C  0.32984195  0.87209449  0.96686824    -0.23400
C2009       C  0.35477947  0.88166123  0.98188011     0.19600
C2010       C  0.35532027  0.88200870  0.01246168     0.24700
C2011       C  0.33091586  0.87282080  0.02847251    -0.23300
C2012       C  0.30673675  0.86182186  0.01331227     0.19600
F2013       F  0.28328869  0.85143796  0.02787664    -0.13300
F2014       F  0.28221419  0.85089123  0.96949078    -0.15600
F2015       F  0.37900584  0.89281929  0.02629798    -0.15600
F2016       F  0.37795927  0.89219853  0.96704329    -0.13300
C2017       C  0.21043003  0.80574868  0.89645829     0.24700
C2018       C  0.23881276  0.79940227  0.88683935    -0.23400
C2019       C  0.24668660  0.77023973  0.88173543     0.19600
C2020       C  0.22604583  0.74823306  0.88356762     0.24700
C2021       C  0.19682772  0.75490855  0.88988687    -0.23300
C2022       C  0.18949181  0.78360267  0.89791305     0.19600
F2023       F  0.16154120  0.79077615  0.90425256    -0.13300
F2024       F  0.20218440  0.83368279  0.90157615    -0.15600
F2025       F  0.23423963  0.72055529  0.87695921    -0.15600
F2026       F  0.27406825  0.76317771  0.87312427    -0.13300
C2027       C  0.20961929  0.89898645  0.80789685     0.24700
C2028       C  0.23883552  0.89481295  0.79962380    -0.23400
C2029       C  0.24614584  0.89562673  0.76995615     0.19600
C2030       C  0.22434321  0.89685715  0.74897377     0.24700
C2031       C  0.19498451  0.89740369  0.75730388    -0.23300
C2032       C  0.18777011  0.90021482  0.78677049     0.19600
F2033       F  0.15949086  0.90032891  0.79523466    -0.13300
F2034       F  0.20180439  0.89830498  0.83631251    -0.15600
F2035       F  0.23172956  0.89473822  0.72047685    -0.15600
F2036       F  0.27422620  0.89284448  0.76119941    -0.13300
C2037       C  0.34990954  0.72973341  0.88724757     0.24700
C2038       C  0.37055715  0.71705594  0.86867846    -0.23400
C2039       C  0.39148413  0.73494908  0.85543381     0.19600
C2040       C  0.38969501  0.76537296  0.85811790     0.24700
C2041       C  0.36702651  0.77814803  0.87416637    -0.23300
C2042       C  0.34833291  0.76003756  0.89018592     0.19600
F2043       F  0.32619409  0.77186462  0.90582018    -0.13300
F2044       F  0.32917687  0.71298894  0.89983153    -0.15600
F2045       F  0.40766501  0.78229993  0.84205705    -0.15600
F2046       F  0.41135051  0.72317804  0.83698381    -0.13300
C2047       C  0.39341641  0.86203964  0.76528106     0.24700
C2048       C  0.37193165  0.87915937  0.77873746    -0.23400
C2049       C  0.35523233  0.89825413  0.76162201     0.19600
C2050       C  0.35729939  0.89748041  0.73126858     0.24700
C2051       C  0.37644905  0.87791640  0.71764484    -0.23300
C2052       C  0.39585333  0.86166353  0.73488976     0.19600
F2053       F  0.41428846  0.84230617  0.72218470    -0.13300
F2054       F  0.40936006  0.84294084  0.78119240    -0.15600
F2055       F  0.33785113  0.91284337  0.71520637    -0.15600
F2056       F  0.33405261  0.91468951  0.77414457    -0.13300
C2057       C  0.38117548  0.14096689  0.51512381     0.24700
C2058       C  0.37355441  0.16617586  0.53100963    -0.23400
C2059       C  0.36534296  0.19130196  0.51546303     0.19600
C2060       C  0.36610998  0.19178497  0.48527263     0.24700
C2061       C  0.37497523  0.16713495  0.46925494    -0.23300
C2062       C  0.38183528  0.14143501  0.48453918     0.19600
F2063       F  0.39031061  0.11709545  0.47004357    -0.13300
F2064       F  0.38904816  0.11617125  0.52907458    -0.15600
F2065       F  0.35820295  0.21686495  0.47179449    -0.15600
F2066       F  0.35672085  0.21595864  0.52938904    -0.13300
C2067       C  0.19492339  0.51323050  0.62119101     0.24700
C2068       C  0.16889504  0.52944266  0.62005030    -0.23400
C2069       C  0.14232139  0.51424613  0.62005802     0.19600
C2070       C  0.14190585  0.48358596  0.62010757     0.24700
C2071       C  0.16809690  0.46741943  0.62033637    -0.23300
C2072       C  0.19455585  0.48289023  0.62141024     0.19600
F2073       F  0.22052959  0.46879221  0.62285304    -0.13300
F2074       F  0.22113056  0.52671462  0.62251721    -0.15600
F2075       F  0.11584739  0.46985173  0.61931600    -0.15600
F2076       F  0.11670198  0.52897616  0.61915789    -0.13300
C2077       C  0.13958360  0.38081740  0.51327709     0.24700
C2078       C  0.16364127  0.36969758  0.52877880    -0.23400
C2079       C  0.18680710  0.35725040  0.51305383     0.19600
C2080       C  0.18713474  0.35799302  0.48282116     0.24700
C2081       C  0.16433995  0.37125269  0.46725989    -0.23300
C2082       C  0.13992746  0.38155839  0.48271005     0.19600
F2083       F  0.11719296  0.39384219  0.46841135    -0.13300
F2084       F  0.11651168  0.39247460  0.52761172    -0.15600
F2085       F  0.21021788  0.34600836  0.46872412    -0.15600
F2086       F  0.20962944  0.34465446  0.52697630    -0.13300
C2087       C  0.24636928  0.26571741  0.61385586     0.24700
C2088       C  0.25383079  0.29531215  0.61203228    -0.23400
C2089       C  0.28324880  0.30285876  0.60862546     0.19600
C2090       C  0.30497202  0.28138630  0.60953650     0.24700
C2091       C  0.29763063  0.25195360  0.61379477    -0.23300
C2092       C  0.26800354  0.24425826  0.61463156     0.19600
F2093       F  0.25994634  0.21601155  0.61757666    -0.13300
F2094       F  0.21809010  0.25765257  0.61631474    -0.15600
F2095       F  0.33323701  0.28979434  0.60901452    -0.15600
F2096       F  0.29123121  0.33124473  0.60737858    -0.13300
C2097       C  0.37618544  0.48386582  0.79767281     0.24700
C2098       C  0.37414031  0.46795898  0.82380292    -0.23400
C2099       C  0.37218932  0.48363779  0.85012893     0.19600
C2100       C  0.37324212  0.51425265  0.85026590     0.24700
C2101       C  0.37637352  0.52986069  0.82411776    -0.23300
C2102       C  0.37728357  0.51409619  0.79784572     0.19600
F2103       F  0.37907770  0.52782910  0.77181276    -0.13300
F2104       F  0.37750330  0.47036780  0.77142114    -0.15600
F2105       F  0.37177964  0.52847918  0.87608355    -0.15600
F2106       F  0.36955371  0.46946491  0.87580708    -0.13300
C2107       C  0.28218992  0.39380450  0.68896729     0.24700
C2108       C  0.25308571  0.38890265  0.69692781    -0.23400
C2109       C  0.24588266  0.38719718  0.72654799     0.19600
C2110       C  0.26771096  0.38656190  0.74752623     0.24700
C2111       C  0.29715746  0.38779966  0.73929020    -0.23300
C2112       C  0.30412855  0.39325394  0.71004853     0.19600
F2113       F  0.33228313  0.39492411  0.70138045    -0.13300
F2114       F  0.28981316  0.39590585  0.66056917    -0.15600
F2115       F  0.26008137  0.38276876  0.77575283    -0.15600
F2116       F  0.21777948  0.38403688  0.73505892    -0.13300
C2117       C  0.38781702  0.26758999  0.74913664     0.24700
C2118       C  0.39037533  0.29687481  0.74082919    -0.23400
C2119       C  0.39752972  0.30364420  0.71193742     0.19600
C2120       C  0.39826457  0.28163960  0.69092854     0.24700
C2121       C  0.39193457  0.25283460  0.69879317    -0.23300
C2122       C  0.38866288  0.24570434  0.72824130     0.19600
F2123       F  0.38393586  0.21773698  0.73645563    -0.13300
F2124       F  0.38231375  0.26034434  0.77718077    -0.15600
F2125       F  0.40167998  0.28897962  0.66259497    -0.15600
F2126       F  0.40042325  0.33175232  0.70342296    -0.13300
C2127       C  0.11752517  0.35806390  0.98248577     0.24700
C2128       C  0.12606298  0.33308170  0.96672832    -0.23400
C2129       C  0.13531945  0.30835678  0.98239917     0.19600
C2130       C  0.13444142  0.30796207  0.01267616     0.24700
C2131       C  0.12477452  0.33237647  0.02842054    -0.23300
C2132       C  0.11702301  0.35773851  0.01307957     0.19600
F2133       F  0.10754000  0.38168876  0.02760551    -0.13300
F2134       F  0.10838732  0.38233257  0.96838349    -0.15600
F2135       F  0.14321440  0.28345940  0.02667073    -0.15600
F2136       F  0.14517707  0.28418697  0.96844141    -0.13300
C2137       C  0.23559272  0.36233689  0.89375695     0.24700
C2138       C  0.21849270  0.37697171  0.87302125    -0.23400
C2139       C  0.23212628  0.39558877  0.85318212     0.19600
C2140       C  0.26252279  0.39700224  0.85196806     0.24700
C2141       C  0.27968988  0.37937551  0.87017781    -0.23300
C2142       C  0.26606950  0.36338038  0.89222720     0.19600
F2143       F  0.28209993  0.34588588  0.90978797    -0.13300
F2144       F  0.22286983  0.34395380  0.91294670    -0.15600
F2145       F  0.27520127  0.41244970  0.83031222    -0.15600
F2146       F  0.21616002  0.40944874  0.83258463    -0.13300
C2147       C  0.09877186  0.35956693  0.76089345     0.24700
C2148       C  0.11757295  0.37655295  0.77805422    -0.23400
C2149       C  0.13464241  0.39780020  0.76443218     0.19600
C2150       C  0.13573856  0.39929584  0.73397875     0.24700
C2151       C  0.11996614  0.37943436  0.71683727    -0.23300
C2152       C  0.10008279  0.36086312  0.73050024     0.19600
F2153       F  0.08499820  0.34112561  0.71457950    -0.13300
F2154       F  0.08215549  0.33876479  0.77353278    -0.15600
F2155       F  0.15527659  0.41732553  0.72126960    -0.15600
F2156       F  0.15328160  0.41419425  0.78035424    -0.13300
C2157       C  0.30547864  0.13378596  0.98333666     0.24700
C2158       C  0.33079976  0.12694361  0.96743739    -0.23400
C2159       C  0.35681452  0.12180932  0.98291203     0.19600
C2160       C  0.35691936  0.12162184  0.01351670     0.24700
C2161       C  0.33101021  0.12648835  0.02917227    -0.23300
C2162       C  0.30559848  0.13356535  0.01358656     0.19600
F2163       F  0.28045776  0.14026731  0.02763643    -0.13300
F2164       F  0.28019760  0.14061603  0.96965653    -0.15600
F2165       F  0.38203817  0.11541206  0.02770749    -0.15600
F2166       F  0.38189661  0.11576744  0.96854626    -0.13300
C2167       C  0.35292132  0.98345594  0.88318259     0.24700
C2168       C  0.32818737  0.96818421  0.87352638    -0.23400
C2169       C  0.30444353  0.98429800  0.86268156     0.19600
C2170       C  0.30479407  0.01468737  0.86268154     0.24700
C2171       C  0.32888382  0.03011295  0.87358994    -0.23300
C2172       C  0.35325580  0.01411549  0.88323311     0.19600
F2173       F  0.37689414  0.02806400  0.89398954    -0.13300
F2174       F  0.37624494  0.96880855  0.89386444    -0.15600
F2175       F  0.28130610  0.02902910  0.85186961    -0.15600
F2176       F  0.28059889  0.97063449  0.85193134    -0.13300
C2177       C  0.25152020  0.23118998  0.88229341     0.24700
C2178       C  0.24394028  0.20193509  0.88685520    -0.23400
C2179       C  0.21514528  0.19521414  0.89459629     0.19600
C2180       C  0.19362553  0.21688909  0.89420470     0.24700
C2181       C  0.20072314  0.24557009  0.88622575    -0.23300
C2182       C  0.23015494  0.25280145  0.88206885     0.19600
F2183       F  0.23808304  0.28058085  0.87598368    -0.13300
F2184       F  0.27943330  0.23864301  0.87626735    -0.15600
F2185       F  0.16553695  0.20915482  0.89877061    -0.15600
F2186       F  0.20721147  0.16724170  0.89958642    -0.13300
C2187       C  0.39711447  0.26191481  0.85404260     0.24700
C2188       C  0.37850916  0.27965005  0.87084090    -0.23400
C2189       C  0.36068950  0.26646847  0.89171905     0.19600
C2190       C  0.35899875  0.23601651  0.89337834     0.24700
C2191       C  0.37499873  0.21831064  0.87410359    -0.23300
C2192       C  0.39527175  0.23146020  0.85555204     0.19600
F2193       F  0.41044172  0.21501546  0.83621734    -0.13300
F2194       F  0.41415262  0.27408233  0.83329615    -0.15600
F2195       F  0.33876036  0.22388555  0.91103344    -0.15600
F2196       F  0.34190938  0.28292616  0.90756218    -0.13300
C2197       C  0.35857731  0.09839952  0.76163261     0.24700
C2198       C  0.37542928  0.11648240  0.77965189    -0.23400
C2199       C  0.39774618  0.13300324  0.76715675     0.19600
C2200       C  0.40035715  0.13459441  0.73684062     0.24700
C2201       C  0.38068200  0.11966774  0.71874471    -0.23300
C2202       C  0.36126846  0.09989401  0.73134413     0.19600
F2203       F  0.34178338  0.08557609  0.71445462    -0.13300
F2204       F  0.33669023  0.08242054  0.77321326    -0.15600
F2205       F  0.41934856  0.15387095  0.72516562    -0.15600
F2206       F  0.41419947  0.15074503  0.78403336    -0.13300
C2207       C  0.09524245  0.98489107  0.67894438     0.24700
C2208       C  0.11602330  0.96861527  0.66331848    -0.23400
C2209       C  0.13652828  0.98369699  0.64630537     0.19600
C2210       C  0.13719157  0.01437714  0.64638019     0.24700
C2211       C  0.11745791  0.03044701  0.66356919    -0.23300
C2212       C  0.09595738  0.01527323  0.67907434     0.19600
F2213       F  0.07535536  0.02993083  0.69444061    -0.13300
F2214       F  0.07405017  0.97133455  0.69430818    -0.15600
F2215       F  0.15799502  0.02825823  0.63081315    -0.15600
F2216       F  0.15685732  0.96882185  0.63082757    -0.13300
C2217       C  0.10070759  0.23546936  0.63980720     0.24700
C2218       C  0.12041167  0.21863365  0.62340640    -0.23400
C2219       C  0.13751636  0.23241951  0.60233228     0.19600
C2220       C  0.13729127  0.26286940  0.60003862     0.24700
C2221       C  0.12041907  0.27989857  0.61919773    -0.23300
C2222       C  0.10077161  0.26592282  0.63778057     0.19600
F2223       F  0.08469904  0.28179367  0.65685997    -0.13300
F2224       F  0.08420949  0.22265562  0.66058598    -0.15600
F2225       F  0.15670918  0.27589172  0.58208817    -0.15600
F2226       F  0.15706806  0.21676987  0.58660638    -0.13300
C2227       C  0.26436597  0.13645016  0.60416197     0.24700
C2228       C  0.28122513  0.12049037  0.62411250    -0.23400
C2229       C  0.26720389  0.10162557  0.64346359     0.19600
C2230       C  0.23679311  0.10101632  0.64487448     0.24700
C2231       C  0.22001014  0.11982257  0.62752958    -0.23300
C2232       C  0.23388707  0.13631491  0.60601686     0.19600
F2233       F  0.21824976  0.15507987  0.58943084    -0.13300
F2234       F  0.27744741  0.15531945  0.58569586    -0.15600
F2235       F  0.22376765  0.08468481  0.66564787    -0.15600
F2236       F  0.28291884  0.08652536  0.66337543    -0.13300
C2237       C  0.10596108  0.22894343  0.74835684     0.24700
C2238       C  0.10711128  0.19936530  0.75617400    -0.23400
C2239       C  0.10437833  0.19183721  0.78568469     0.19600
C2240       C  0.10420077  0.21357326  0.80710028     0.24700
C2241       C  0.10681188  0.24299562  0.79922586    -0.23300
C2242       C  0.10592777  0.25055010  0.76970434     0.19600
F2243       F  0.10697112  0.27890359  0.76153066    -0.13300
F2244       F  0.10679653  0.23698541  0.72001398    -0.15600
F2245       F  0.10477988  0.20567892  0.83548978    -0.15600
F2246       F  0.10504118  0.16352587  0.79403382    -0.13300
C2247       C  0.21059787  0.10635393  0.80770561     0.24700
C2248       C  0.23997487  0.10911069  0.79948553    -0.23400
C2249       C  0.24718673  0.10836607  0.76981202     0.19600
C2250       C  0.22536273  0.10794868  0.74878651     0.24700
C2251       C  0.19594924  0.10795666  0.75697682    -0.23300
C2252       C  0.18869536  0.10574433  0.78651969     0.19600
F2253       F  0.16041327  0.10638017  0.79497466    -0.13300
F2254       F  0.20284439  0.10748774  0.83613434    -0.15600
F2255       F  0.23291039  0.10973145  0.72035543    -0.15600
F2256       F  0.27535626  0.11000997  0.76112319    -0.13300
C2257       C  0.51343473  0.18906507  0.63618666     0.24700
C2258       C  0.52977095  0.16541166  0.62543986    -0.23400
C2259       C  0.51498075  0.14007679  0.61659394     0.19600
C2260       C  0.48440392  0.13928465  0.61668397     0.24700
C2261       C  0.46823359  0.16383125  0.62552436    -0.23300
C2262       C  0.48315115  0.18831534  0.63612748     0.19600
F2263       F  0.46834249  0.21181196  0.64640150    -0.13300
F2264       F  0.52678758  0.21323551  0.64665002    -0.15600
F2265       F  0.47068991  0.11517755  0.60664083    -0.15600
F2266       F  0.52998097  0.11668641  0.60643391    -0.13300
C2267       C  0.63858823  0.18727965  0.48318502     0.24700
C2268       C  0.62560720  0.16455567  0.46730675    -0.23400
C2269       C  0.61317742  0.14116578  0.48269806     0.19600
C2270       C  0.61263659  0.14132472  0.51329771     0.24700
C2271       C  0.62439376  0.16489819  0.52889825    -0.23300
C2272       C  0.63791469  0.18747273  0.51345194     0.19600
F2273       F  0.65043282  0.21007325  0.52775429    -0.13300
F2274       F  0.65185169  0.20969133  0.46936842    -0.15600
F2275       F  0.59914314  0.11935905  0.52755933    -0.15600
F2276       F  0.60012716  0.11901723  0.46822194    -0.13300
C2277       C  0.80713203  0.48258229  0.63112672     0.24700
C2278       C  0.83110736  0.46696767  0.62014009    -0.23400
C2279       C  0.85597171  0.48242315  0.61129299     0.19600
C2280       C  0.85616470  0.51303926  0.61214716     0.24700
C2281       C  0.83149914  0.52852478  0.62184959    -0.23300
C2282       C  0.80731980  0.51285393  0.63196125     0.19600
F2283       F  0.78353263  0.52689857  0.64258529    -0.13300
F2284       F  0.78320112  0.46849150  0.64106014    -0.15600
F2285       F  0.87975782  0.52748147  0.60200796    -0.15600
F2286       F  0.87939353  0.46804297  0.60038464    -0.13300
C2287       C  0.85475396  0.38527048  0.51104179     0.24700
C2288       C  0.83321571  0.36989172  0.52627367    -0.23400
C2289       C  0.81295000  0.35329052  0.51058324     0.19600
C2290       C  0.81290052  0.35363001  0.48028014     0.24700
C2291       C  0.83312516  0.37061663  0.46494228    -0.23300
C2292       C  0.85470361  0.38564191  0.48054092     0.19600
F2293       F  0.87439295  0.40234939  0.46637325    -0.13300
F2294       F  0.87447447  0.40163397  0.52562213    -0.15600
F2295       F  0.79261326  0.33774464  0.46588574    -0.15600
F2296       F  0.79270425  0.33715592  0.52468962    -0.13300
C2297       C  0.74586737  0.27156892  0.60355430     0.24700
C2298       C  0.73827929  0.30113408  0.60151070    -0.23400
C2299       C  0.70913832  0.30881559  0.59602227     0.19600
C2300       C  0.68747727  0.28742764  0.59646664     0.24700
C2301       C  0.69490741  0.25832160  0.60236099    -0.23300
C2302       C  0.72437348  0.25036163  0.60403758     0.19600
F2303       F  0.73222765  0.22222590  0.60862603    -0.13300
F2304       F  0.77396952  0.26337744  0.60755549    -0.15600
F2305       F  0.65915617  0.29564797  0.59456782    -0.15600
F2306       F  0.70120811  0.33719640  0.59362189    -0.13300
C2307       C  0.59755768  0.48631564  0.81372512     0.24700
C2308       C  0.61658609  0.47046229  0.83164825    -0.23400
C2309       C  0.63404179  0.48560450  0.85173314     0.19600
C2310       C  0.63396475  0.51622092  0.85216579     0.24700
C2311       C  0.61638776  0.53189169  0.83254310    -0.23300
C2312       C  0.59746633  0.51650064  0.81415506     0.19600
F2313       F  0.57877496  0.53070650  0.79621503    -0.13300
F2314       F  0.57891836  0.47254956  0.79544456    -0.15600
F2315       F  0.65201104  0.53040611  0.87068317    -0.15600
F2316       F  0.65211410  0.47092440  0.86988282    -0.13300
C2317       C  0.51399505  0.38302719  0.85095914     0.24700
C2318       C  0.52957580  0.37440190  0.82597160    -0.23400
C2319       C  0.51378632  0.36451354  0.80166661     0.19600
C2320       C  0.48346976  0.36438477  0.80178842     0.24700
C2321       C  0.46775421  0.37399620  0.82625648    -0.23300
C2322       C  0.48335961  0.38280148  0.85110207     0.19600
F2323       F  0.46903779  0.39258745  0.87499708    -0.13300
F2324       F  0.52827747  0.39303687  0.87473394    -0.15600
F2325       F  0.46948016  0.35482175  0.77762507    -0.15600
F2326       F  0.52767912  0.35501143  0.77738027    -0.13300
C2327       C  0.60543602  0.27570077  0.74405673     0.24700
C2328       C  0.60717426  0.30502669  0.73566850    -0.23400
C2329       C  0.60411661  0.31224108  0.70614766     0.19600
C2330       C  0.60298682  0.29020840  0.68511373     0.24700
C2331       C  0.60492887  0.26083718  0.69346850    -0.23300
C2332       C  0.60428765  0.25378674  0.72313120     0.19600
F2333       F  0.60482370  0.22556369  0.73181754    -0.13300
F2334       F  0.60691276  0.26815393  0.77249765    -0.15600
F2335       F  0.60348197  0.29765849  0.65660581    -0.15600
F2336       F  0.60555159  0.34039861  0.69739647    -0.13300
C2337       C  0.72482438  0.39680703  0.74152994     0.24700
C2338       C  0.69522333  0.39803127  0.73416149    -0.23400
C2339       C  0.68734654  0.40180688  0.70488116     0.19600
C2340       C  0.70869146  0.40066819  0.68305628     0.24700
C2341       C  0.73799236  0.39565501  0.69044290    -0.23300
C2342       C  0.74598524  0.39563353  0.71990397     0.19600
F2343       F  0.77418506  0.39196892  0.72778336    -0.13300
F2344       F  0.73311601  0.39412125  0.76969883    -0.15600
F2345       F  0.70031672  0.40106959  0.65479445    -0.15600
F2346       F  0.65888067  0.40309334  0.69717828    -0.13300
C2347       C  0.98510037  0.11282431  0.64268462     0.24700
C2348       C  0.96965332  0.12738820  0.66477817    -0.23400
C2349       C  0.98515127  0.14392363  0.68530547     0.19600
C2350       C  0.01542410  0.14419822  0.68510239     0.24700
C2351       C  0.03102131  0.12798843  0.66434282    -0.23300
C2352       C  0.01563185  0.11314819  0.64245268     0.19600
F2353       F  0.03006452  0.09730344  0.62209915    -0.13300
F2354       F  0.97080388  0.09663780  0.62259497    -0.15600
F2355       F  0.02954399  0.15987657  0.70575148    -0.15600
F2356       F  0.97095260  0.15936637  0.70616463    -0.13300
C2357       C  0.89781868  0.01272249  0.68940811     0.24700
C2358       C  0.88060219  0.02876909  0.66975318    -0.23400
C2359       C  0.86294339  0.01333005  0.65000578     0.19600
C2360       C  0.86232677  0.98266477  0.65024323     0.24700
C2361       C  0.87929615  0.96683685  0.67027778    -0.23300
C2362       C  0.89718872  0.98238852  0.68963866     0.19600
F2363       F  0.91459444  0.96823051  0.70885367    -0.13300
F2364       F  0.91570991  0.02632709  0.70853154    -0.15600
F2365       F  0.84431897  0.96856601  0.63163105    -0.15600
F2366       F  0.84544380  0.02785143  0.63119816    -0.13300
C2367       C  0.76077030  0.10309852  0.64531954     0.24700
C2368       C  0.77997149  0.12039036  0.62904664    -0.23400
C2369       C  0.76863830  0.13867776  0.60742637     0.19600
C2370       C  0.73847006  0.14214440  0.60449950     0.24700
C2371       C  0.71931171  0.12719088  0.62298736    -0.23300
C2372       C  0.73061983  0.10648232  0.64232033     0.19600
F2373       F  0.71266604  0.09246399  0.66100720    -0.13300
F2374       F  0.77124256  0.08556561  0.66661511    -0.15600
F2375       F  0.72804422  0.16271510  0.58607999    -0.15600
F2376       F  0.78665734  0.15617651  0.59202426    -0.13300
C2377       C  0.85184139  0.25894851  0.60197761     0.24700
C2378       C  0.86899895  0.27742065  0.61929160    -0.23400
C2379       C  0.89152622  0.26523134  0.63589747     0.19600
C2380       C  0.89456663  0.23486035  0.63778983     0.24700
C2381       C  0.87492739  0.21636448  0.62335055    -0.23300
C2382       C  0.85463195  0.22863071  0.60414469     0.19600
F2383       F  0.83512332  0.21135500  0.59032175    -0.13300
F2384       F  0.83013978  0.27026931  0.58546761    -0.15600
F2385       F  0.91419051  0.22353206  0.65671148    -0.15600
F2386       F  0.90817418  0.28251721  0.65303784    -0.13300
C2387       C  0.69519033  0.13969602  0.98323170     0.24700
C2388       C  0.67095696  0.12964985  0.96751107    -0.23400
C2389       C  0.64568351  0.12181479  0.98284863     0.19600
C2390       C  0.64565102  0.12161277  0.01338676     0.24700
C2391       C  0.67091558  0.12923022  0.02894975    -0.23300
C2392       C  0.69518772  0.13945269  0.01343861     0.19600
F2393       F  0.71936743  0.14889153  0.02749568    -0.13300
F2394       F  0.71934671  0.14937505  0.96933059    -0.15600
F2395       F  0.62150387  0.11246123  0.02757758    -0.15600
F2396       F  0.62161174  0.11279200  0.96840848    -0.13300
C2397       C  0.64335052  0.98563142  0.87900444     0.24700
C2398       C  0.66867734  0.96908005  0.87376679    -0.23400
C2399       C  0.69465512  0.98382327  0.86728160     0.19600
C2400       C  0.69585162  0.01409022  0.86765169     0.24700
C2401       C  0.67105100  0.03087224  0.87445966    -0.23300
C2402       C  0.64452672  0.01628924  0.87937726     0.19600
F2403       F  0.62000289  0.03155591  0.88570640    -0.13300
F2404       F  0.61781455  0.97222768  0.88504176    -0.15600
F2405       F  0.72163803  0.02690596  0.86127640    -0.15600
F2406       F  0.71929917  0.96887570  0.86051816    -0.13300
C2407       C  0.64952267  0.10464610  0.75942982     0.24700
C2408       C  0.63271909  0.12172703  0.77853363    -0.23400
C2409       C  0.60975050  0.13843512  0.76728887     0.19600
C2410       C  0.60585935  0.14063340  0.73714695     0.24700
C2411       C  0.62496272  0.12624997  0.71797831    -0.23300
C2412       C  0.64573398  0.10695030  0.72933875     0.19600
F2413       F  0.66491239  0.09342260  0.71134921    -0.13300
F2414       F  0.67188718  0.08837412  0.76983665    -0.15600
F2415       F  0.58587632  0.15970772  0.72663271    -0.15600
F2416       F  0.59365546  0.15559018  0.78520431    -0.13300
C2417       C  0.61170683  0.23255854  0.85384907     0.24700
C2418       C  0.63292766  0.22082168  0.87237249    -0.23400
C2419       C  0.64910407  0.23970299  0.89017827     0.19600
C2420       C  0.64634933  0.26993529  0.88720901     0.24700
C2421       C  0.62705683  0.28165822  0.86670191    -0.23300
C2422       C  0.60864182  0.26282136  0.85121070     0.19600
F2423       F  0.59011905  0.27371863  0.83099419    -0.13300
F2424       F  0.59661135  0.21488041  0.83568319    -0.15600
F2425       F  0.66485682  0.28762033  0.90186813    -0.15600
F2426       F  0.67002745  0.22883134  0.90795171    -0.13300
C2427       C  0.79319418  0.09801559  0.81017476     0.24700
C2428       C  0.76399157  0.10344561  0.80279519    -0.28200
C2429       C  0.75618108  0.10548382  0.77335714     0.19600
C2430       C  0.77750020  0.10644820  0.75204619     0.24700
C2431       C  0.80697549  0.10496639  0.75973521    -0.23300
C2432       C  0.81470233  0.09878963  0.78861633     0.19600
F2433       F  0.84310458  0.09699257  0.79646092    -0.13300
F2434       F  0.80129779  0.09550666  0.83840382    -0.15600
F2435       F  0.76943458  0.11147376  0.72412600    -0.15600
F2436       F  0.72802847  0.10955979  0.76543716    -0.13300
C2437       C  0.86076522  0.35315969  0.98143286     0.24700
C2438       C  0.88198704  0.33776508  0.96553703    -0.23400
C2439       C  0.90407140  0.32298405  0.98079705     0.19600
C2440       C  0.90410039  0.32222946  0.01107819     0.24700
C2441       C  0.88210191  0.33625066  0.02711231    -0.23300
C2442       C  0.86081820  0.35245019  0.01201777     0.19600
F2443       F  0.83922870  0.36625081  0.02674938    -0.13300
F2444       F  0.83905171  0.36747847  0.96743008    -0.15600
F2445       F  0.92584242  0.30759075  0.02475466    -0.15600
F2446       F  0.92571424  0.30896330  0.96629701    -0.13300
C2447       C  0.98555260  0.30923919  0.86087588     0.24700
C2448       C  0.96931332  0.33397416  0.86915547    -0.23400
C2449       C  0.98446469  0.35963625  0.87650854     0.19600
C2450       C  0.01506522  0.35972643  0.87736533     0.24700
C2451       C  0.03095770  0.33420171  0.87109638    -0.23300
C2452       C  0.01575564  0.30929449  0.86197523     0.19600
F2453       F  0.03013916  0.28465040  0.85409131    -0.13300
F2454       F  0.97228837  0.28440435  0.85194139    -0.15600
F2455       F  0.02898869  0.38441952  0.88557136    -0.15600
F2456       F  0.96980171  0.38421327  0.88396790    -0.13300
C2457       C  0.81232372  0.21460817  0.90143547     0.24700
C2458       C  0.80466162  0.24290949  0.89258470    -0.23400
C2459       C  0.77525477  0.24966982  0.88789977     0.19600
C2460       C  0.75443543  0.22783161  0.88805212     0.24700
C2461       C  0.76260731  0.19866464  0.89264404    -0.23300
C2462       C  0.79129959  0.19246907  0.90147545     0.19600
F2463       F  0.79965096  0.16470705  0.90719557    -0.13300
F2464       F  0.84051160  0.20773815  0.90698211    -0.15600
F2465       F  0.72657252  0.23493052  0.88122757    -0.15600
F2466       F  0.76700032  0.27715235  0.88073357    -0.13300
C2467       C  0.89880075  0.19324780  0.78521839     0.24700
C2468       C  0.89378636  0.20016383  0.75590687    -0.23400
C2469       C  0.89207957  0.22960694  0.74772088     0.19600
C2470       C  0.89135287  0.25140328  0.76881294     0.24700
C2471       C  0.89232038  0.24416363  0.79847246    -0.23300
C2472       C  0.89809033  0.21512063  0.80640716     0.19600
F2473       F  0.90002249  0.20738918  0.83477222    -0.13300
F2474       F  0.90119613  0.16509574  0.79381205    -0.15600
F2475       F  0.88775842  0.27945478  0.76022010    -0.15600
F2476       F  0.88903747  0.23716767  0.71938208    -0.13300
C2477       C  0.89100635  0.36122967  0.72872811     0.24700
C2478       C  0.86849668  0.37740620  0.71585767    -0.23400
C2479       C  0.85104264  0.39527300  0.73361965     0.19600
C2480       C  0.85329938  0.39386717  0.76394085     0.24700
C2481       C  0.87359692  0.37512224  0.77697512    -0.23300
C2482       C  0.89363828  0.36022273  0.75914231     0.19600
F2483       F  0.91337792  0.34182882  0.77119276    -0.13300
F2484       F  0.90813698  0.34376179  0.71212081    -0.15600
F2485       F  0.83348492  0.40822627  0.78054272    -0.15600
F2486       F  0.82962659  0.41168798  0.72159538    -0.13300
C2487       C  0.76839163  0.39542682  0.85453733     0.24700
C2488       C  0.77959918  0.37478958  0.87400737    -0.23400
C2489       C  0.76029935  0.36018853  0.89268325     0.19600
C2490       C  0.73012815  0.36347101  0.88943232     0.24700
C2491       C  0.71895532  0.38107795  0.86719118    -0.23300
C2492       C  0.73824225  0.39851689  0.85113160     0.19600
F2493       F  0.72791099  0.41580141  0.82956493    -0.13300
F2494       F  0.78642943  0.40934609  0.83585249    -0.15600
F2495       F  0.71203513  0.34631122  0.90511637    -0.15600
F2496       F  0.77062377  0.33998807  0.91156417    -0.13300
loop_ 
_geom_bond_atom_site_label_1 
_geom_bond_atom_site_label_2 
_geom_bond_distance 
_geom_bond_site_symmetry_2 
_ccdc_geom_bond_type 
Fe1          O17   2.052       .  S
Fe1           O7   2.036       .  S
Fe1          O14   2.044       .  S
Fe1           O6   2.054       .  S
Fe1          O12   1.953       .  S
Fe2           O5   2.057       .  S
Fe2           O9   2.068       .  S
Fe2          O13   2.080       .  S
Fe2          O18   2.037       .  S
Fe2          O12   1.967       .  S
Fe3          O21   2.093       .  S
Fe3           O8   2.100       .  S
Fe3          O15   2.115       .  S
Fe3           O4   2.097       .  S
Fe3          O12   1.978       .  S
O4           C11   1.272       .  A
O5           C19   1.269       .  A
O6           C11   1.264       .  A
O7           C10   1.265       .  A
O8           C20   1.274       .  A
O9           C22   1.267       .  A
C10          O15   1.278       .  A
C10        C2488   1.476       .  S
C11        C2481   1.479       .  S
O13          C16   1.270       .  A
O14          C16   1.267       .  A
C16        C2471   1.479       .  S
O17          C22   1.267       .  A
O18          C20   1.268       .  A
C19          O21   1.275       .  A
C19        C2438   1.487       .  S
C20        C2448   1.491       .  S
C22        C2458   1.474       .  S
Fe23         O39   2.032       .  S
Fe23         O29   2.040       .  S
Fe23         O36   2.039       .  S
Fe23         O28   2.036       .  S
Fe23         O34   1.961       .  S
Fe24         O27   2.055       .  S
Fe24         O31   2.074       .  S
Fe24         O35   2.083       .  S
Fe24         O40   2.043       .  S
Fe24         O34   1.984       .  S
Fe25         O43   2.090       .  S
Fe25         O30   2.087       .  S
Fe25         O37   2.099       .  S
Fe25         O26   2.099       .  S
Fe25         O34   1.996       .  S
O26          C33   1.273       .  A
O27          C41   1.269       .  A
O28          C33   1.262       .  A
O29          C32   1.263       .  A
O30          C42   1.273       .  A
O31          C44   1.267       .  A
C32          O37   1.273       .  A
C32        C2408   1.475       .  S
C33        C2418   1.474       .  S
O35          C38   1.269       .  A
O36          C38   1.265       .  A
C38        C2461   1.480       .  S
O39          C44   1.263       .  A
O40          C42   1.267       .  A
C41          O43   1.274       .  A
C41        C2401   1.493       .  S
C42        C2388   1.484       .  S
C44        C2428   1.471       .  S
Fe45         O61   2.041       .  S
Fe45         O51   2.045       .  S
Fe45         O58   2.048       .  S
Fe45         O50   2.034       .  S
Fe45         O56   1.959       .  S
Fe46         O49   2.040       .  S
Fe46         O53   2.077       .  S
Fe46         O57   2.060       .  S
Fe46         O62   2.058       .  S
Fe46         O56   1.976       .  S
Fe47         O65   2.091       .  S
Fe47         O52   2.092       .  S
Fe47         O59   2.100       .  S
Fe47         O48   2.104       .  S
Fe47         O56   1.986       .  S
O48          C55   1.274       .  A
O49          C63   1.267       .  A
O50          C55   1.263       .  A
O51          C54   1.264       .  A
O52          C64   1.274       .  A
O53          C66   1.269       .  A
C54          O59   1.273       .  A
C54        C2381   1.476       .  S
C55        C2368   1.474       .  S
O57          C60   1.266       .  A
O58          C60   1.267       .  A
C60        C2431   1.468       .  S
O61          C66   1.263       .  A
O62          C64   1.269       .  A
C63          O65   1.274       .  A
C63        C2348   1.479       .  S
C64        C2358   1.494       .  S
C66        C2468   1.477       .  S
Fe67         O83   2.050       .  S
Fe67         O73   2.037       .  S
Fe67         O80   2.047       .  S
Fe67         O72   2.049       .  S
Fe67         O78   1.960       .  S
Fe68         O71   2.048       .  S
Fe68         O75   2.076       .  S
Fe68         O79   2.075       .  S
Fe68         O84   2.049       .  S
Fe68         O78   1.975       .  S
Fe69         O87   2.078       .  S
Fe69         O74   2.099       .  S
Fe69         O81   2.111       .  S
Fe69         O70   2.088       .  S
Fe69         O78   1.991       .  S
O70          C77   1.269       .  A
O71          C85   1.269       .  A
O72          C77   1.263       .  A
O73          C76   1.265       .  A
O74          C86   1.276       .  A
O75          C88   1.267       .  A
C76          O81   1.277       .  A
C76        C2491   1.477       .  S
C77        C2421   1.474       .  S
O79          C82   1.270       .  A
O80          C82   1.267       .  A
C82        C2328   1.474       .  S
O83          C88   1.265       .  A
O84          C86   1.268       .  A
C85          O87   1.271       .  A
C85        C2308   1.479       .  S
C86        C2318   1.492       .  S
C88        C2338   1.476       .  S
Fe89        O105   2.044       .  S
Fe89         O95   2.048       .  S
Fe89        O102   2.050       .  S
Fe89         O94   2.043       .  S
Fe89        O100   1.963       .  S
Fe90         O93   2.054       .  S
Fe90         O97   2.070       .  S
Fe90        O101   2.081       .  S
Fe90        O106   2.050       .  S
Fe90        O100   1.984       .  S
Fe91        O109   2.086       .  S
Fe91         O96   2.084       .  S
Fe91        O103   2.101       .  S
Fe91         O92   2.104       .  S
Fe91        O100   1.998       .  S
O92          C99   1.273       .  A
O93         C107   1.268       .  A
O94          C99   1.264       .  A
O95          C98   1.265       .  A
O96         C108   1.272       .  A
O97         C110   1.267       .  A
C98         O103   1.273       .  A
C98        C2378   1.479       .  S
C99        C2478   1.480       .  S
O101        C104   1.270       .  A
O102        C104   1.267       .  A
C104       C2341   1.479       .  S
O105        C110   1.265       .  A
O106        C108   1.268       .  A
C107        O109   1.272       .  A
C107       C2288   1.479       .  S
C108       C2278   1.483       .  S
C110       C2298   1.474       .  S
Fe111       O127   2.044       .  S
Fe111       O117   2.038       .  S
Fe111       O124   2.043       .  S
Fe111       O116   2.040       .  S
Fe111       O122   1.964       .  S
Fe112       O115   2.052       .  S
Fe112       O119   2.074       .  S
Fe112       O123   2.071       .  S
Fe112       O128   2.053       .  S
Fe112       O122   1.982       .  S
Fe113       O131   2.087       .  S
Fe113       O118   2.089       .  S
Fe113       O125   2.097       .  S
Fe113       O114   2.099       .  S
Fe113       O122   1.996       .  S
O114        C121   1.274       .  A
O115        C129   1.269       .  A
O116        C121   1.264       .  A
O117        C120   1.263       .  A
O118        C130   1.272       .  A
O119        C132   1.268       .  A
C120        O125   1.272       .  A
C120       C2411   1.473       .  S
C121       C2371   1.474       .  S
O123        C126   1.268       .  A
O124        C126   1.265       .  A
C126       C2301   1.472       .  S
O127        C132   1.265       .  A
O128        C130   1.267       .  A
C129        O131   1.273       .  A
C129       C2258   1.486       .  S
C130       C2271   1.485       .  S
C132       C2331   1.474       .  S
Fe133       O149   2.054       .  S
Fe133       O139   2.039       .  S
Fe133       O146   2.048       .  S
Fe133       O138   2.049       .  S
Fe133       O144   1.962       .  S
Fe134       O137   2.069       .  S
Fe134       O141   2.074       .  S
Fe134       O145   2.083       .  S
Fe134       O150   2.049       .  S
Fe134       O144   1.974       .  S
Fe135       O153   2.085       .  S
Fe135       O140   2.087       .  S
Fe135       O147   2.104       .  S
Fe135       O136   2.094       .  S
Fe135       O144   1.988       .  S
O136        C143   1.271       .  A
O137        C151   1.271       .  A
O138        C143   1.264       .  A
O139        C142   1.265       .  A
O140        C152   1.274       .  A
O141        C154   1.270       .  A
C142        O147   1.275       .  A
C142       C2231   1.475       .  S
C143       C2218   1.477       .  S
O145        C148   1.270       .  A
O146        C148   1.265       .  A
C148       C2238   1.481       .  S
O149        C154   1.267       .  A
O150        C152   1.270       .  A
C151        O153   1.272       .  A
C151       C2211   1.491       .  S
C152       C2351   1.479       .  S
C154       C2251   1.472       .  S
Fe155       O171   2.050       .  S
Fe155       O161   2.042       .  S
Fe155       O168   2.049       .  S
Fe155       O160   2.041       .  S
Fe155       O166   1.968       .  S
Fe156       O159   2.054       .  S
Fe156       O163   2.074       .  S
Fe156       O167   2.075       .  S
Fe156       O172   2.058       .  S
Fe156       O166   1.978       .  S
Fe157       O175   2.088       .  S
Fe157       O162   2.097       .  S
Fe157       O169   2.106       .  S
Fe157       O158   2.100       .  S
Fe157       O166   1.996       .  S
O158        C165   1.273       .  A
O159        C173   1.267       .  A
O160        C165   1.264       .  A
O161        C164   1.264       .  A
O162        C174   1.276       .  A
O163        C176   1.270       .  A
C164        O169   1.275       .  A
C164       C2191   1.479       .  S
C165       C2198   1.476       .  S
O167        C170   1.268       .  A
O168        C170   1.265       .  A
C170       C2248   1.479       .  S
O171        C176   1.267       .  A
O172        C174   1.270       .  A
C173        O175   1.272       .  A
C173       C2158   1.494       .  S
C174       C2171   1.494       .  S
C176       C2178   1.478       .  S
Fe177       O193   2.053       .  S
Fe177       O183   2.032       .  S
Fe177       O190   2.046       .  S
Fe177       O182   2.050       .  S
Fe177       O188   1.965       .  S
Fe178       O181   2.057       .  S
Fe178       O185   2.070       .  S
Fe178       O189   2.078       .  S
Fe178       O194   2.046       .  S
Fe178       O188   1.976       .  S
Fe179       O197   2.079       .  S
Fe179       O184   2.100       .  S
Fe179       O191   2.114       .  S
Fe179       O180   2.091       .  S
Fe179       O188   1.995       .  S
O180        C187   1.271       .  A
O181        C195   1.269       .  A
O182        C187   1.265       .  A
O183        C186   1.262       .  A
O184        C196   1.275       .  A
O185        C198   1.267       .  A
C186        O191   1.276       .  A
C186       C2148   1.479       .  S
C187       C2138   1.474       .  S
O189        C192   1.271       .  A
O190        C192   1.267       .  A
C192       C2181   1.481       .  S
O193        C198   1.265       .  A
O194        C196   1.266       .  A
C195        O197   1.273       .  A
C195       C2451   1.486       .  S
C196       C2128   1.494       .  S
C198       C2241   1.476       .  S
Fe199       O215   2.045       .  S
Fe199       O205   2.031       .  S
Fe199       O212   2.043       .  S
Fe199       O204   2.039       .  S
Fe199       O210   1.968       .  S
Fe200       O203   2.055       .  S
Fe200       O207   2.058       .  S
Fe200       O211   2.077       .  S
Fe200       O216   2.037       .  S
Fe200       O210   1.975       .  S
Fe201       O219   2.088       .  S
Fe201       O206   2.098       .  S
Fe201       O213   2.113       .  S
Fe201       O202   2.099       .  S
Fe201       O210   1.992       .  S
O202        C209   1.272       .  A
O203        C217   1.268       .  A
O204        C209   1.263       .  A
O205        C208   1.262       .  A
O206        C218   1.275       .  A
O207        C220   1.265       .  A
C208        O213   1.276       .  A
C208       C2188   1.478       .  S
C209       C2141   1.475       .  S
O211        C214   1.269       .  A
O212        C214   1.264       .  A
C214       C2111   1.478       .  S
O215        C220   1.265       .  A
O216        C218   1.266       .  A
C217        O219   1.273       .  A
C217       C2321   1.490       .  S
C218       C2098   1.495       .  S
C220       C2118   1.469       .  S
Fe221       O237   2.043       .  S
Fe221       O227   2.039       .  S
Fe221       O234   2.051       .  S
Fe221       O226   2.034       .  S
Fe221       O232   1.968       .  S
Fe222       O225   2.056       .  S
Fe222       O229   2.073       .  S
Fe222       O233   2.078       .  S
Fe222       O238   2.055       .  S
Fe222       O232   1.976       .  S
Fe223       O241   2.093       .  S
Fe223       O228   2.087       .  S
Fe223       O235   2.102       .  S
Fe223       O224   2.106       .  S
Fe223       O232   1.997       .  S
O224        C231   1.275       .  A
O225        C239   1.269       .  A
O226        C231   1.263       .  A
O227        C230   1.262       .  A
O228        C240   1.272       .  A
O229        C242   1.270       .  A
C230        O235   1.272       .  A
C230       C2151   1.477       .  S
C231       C2221   1.474       .  S
O233        C236   1.269       .  A
O234        C236   1.264       .  A
C236       C2088   1.481       .  S
O237        C242   1.266       .  A
O238        C240   1.269       .  A
C239        O241   1.274       .  A
C239       C2071   1.499       .  S
C240       C2078   1.488       .  S
C242       C2108   1.475       .  S
Fe243       O259   2.052       .  S
Fe243       O249   2.051       .  S
Fe243       O256   2.044       .  S
Fe243       O248   2.031       .  S
Fe243       O254   1.957       .  S
Fe244       O247   2.040       .  S
Fe244       O251   2.090       .  S
Fe244       O255   2.057       .  S
Fe244       O260   2.062       .  S
Fe244       O254   1.965       .  S
Fe245       O263   2.098       .  S
Fe245       O250   2.080       .  S
Fe245       O257   2.089       .  S
Fe245       O246   2.116       .  S
Fe245       O254   1.982       .  S
O246        C253   1.277       .  A
O247        C261   1.267       .  A
O248        C253   1.263       .  A
O249        C252   1.264       .  A
O250        C262   1.273       .  A
O251        C264   1.274       .  A
C252        O257   1.271       .  A
C252       C2228   1.473       .  S
C253       C2201   1.476       .  S
O255        C258   1.264       .  A
O256        C258   1.264       .  A
C258       C2121   1.466       .  S
O259        C264   1.268       .  A
O260        C262   1.271       .  A
C261        O263   1.275       .  A
C261       C2058   1.493       .  S
C262       C2261   1.483       .  S
C264       C2091   1.486       .  S
Fe265       O281   2.044       .  S
Fe265       O271   2.041       .  S
Fe265       O278   2.049       .  S
Fe265       O270   2.034       .  S
Fe265       O276   1.967       .  S
Fe266       O269   2.058       .  S
Fe266       O273   2.075       .  S
Fe266       O277   2.077       .  S
Fe266       O282   2.058       .  S
Fe266       O276   1.977       .  S
Fe267       O285   2.098       .  S
Fe267       O272   2.084       .  S
Fe267       O279   2.095       .  S
Fe267       O268   2.112       .  S
Fe267       O276   1.992       .  S
O268        C275   1.277       .  A
O269        C283   1.271       .  A
O270        C275   1.264       .  A
O271        C274   1.262       .  A
O272        C284   1.271       .  A
O273        C286   1.269       .  A
C274        O279   1.270       .  A
C274       C2048   1.475       .  S
C275       C2041   1.477       .  S
O277        C280   1.269       .  A
O278        C280   1.265       .  A
C280       C2018   1.480       .  S
O281        C286   1.266       .  A
O282        C284   1.268       .  A
C283        O285   1.276       .  A
C283       C2168   1.493       .  S
C284       C2008   1.488       .  S
C286       C2028   1.477       .  S
Fe287       O303   2.040       .  S
Fe287       O293   2.035       .  S
Fe287       O300   2.034       .  S
Fe287       O292   2.034       .  S
Fe287       O298   1.961       .  S
Fe288       O291   2.063       .  S
Fe288       O295   2.084       .  S
Fe288       O299   2.088       .  S
Fe288       O304   2.057       .  S
Fe288       O298   1.982       .  S
Fe289       O307   2.079       .  S
Fe289       O294   2.084       .  S
Fe289       O301   2.099       .  S
Fe289       O290   2.097       .  S
Fe289       O298   1.997       .  S
O290        C297   1.271       .  A
O291        C305   1.270       .  A
O292        C297   1.262       .  A
O293        C296   1.263       .  A
O294        C306   1.274       .  A
O295        C308   1.272       .  A
C296        O301   1.273       .  A
C296       C1988   1.473       .  S
C297       C1981   1.472       .  S
O299        C302   1.270       .  A
O300        C302   1.262       .  A
C302       C1998   1.481       .  S
O303        C308   1.266       .  A
O304        C306   1.271       .  A
C305        O307   1.270       .  A
C305       C1961   1.483       .  S
C306       C1968   1.486       .  S
C308       C2021   1.480       .  S
Fe309       O325   2.050       .  S
Fe309       O315   2.059       .  S
Fe309       O322   2.046       .  S
Fe309       O314   2.036       .  S
Fe309       O320   1.951       .  S
Fe310       O313   2.049       .  S
Fe310       O317   2.091       .  S
Fe310       O321   2.067       .  S
Fe310       O326   2.073       .  S
Fe310       O320   1.963       .  S
Fe311       O329   2.100       .  S
Fe311       O316   2.090       .  S
Fe311       O323   2.098       .  S
Fe311       O312   2.120       .  S
Fe311       O320   1.969       .  S
O312        C319   1.279       .  A
O313        C327   1.268       .  A
O314        C319   1.264       .  A
O315        C318   1.265       .  A
O316        C328   1.275       .  A
O317        C330   1.274       .  A
C318        O323   1.272       .  A
C318       C1938   1.480       .  S
C319       C1951   1.478       .  S
O321        C324   1.267       .  A
O322        C324   1.265       .  A
C324       C2031   1.466       .  S
O325        C330   1.269       .  A
O326        C328   1.273       .  A
C327        O329   1.276       .  A
C327       C1928   1.490       .  S
C328       C2208   1.492       .  S
C330       C2001   1.485       .  S
Fe331       O347   2.056       .  S
Fe331       O337   2.037       .  S
Fe331       O344   2.046       .  S
Fe331       O336   2.059       .  S
Fe331       O342   1.957       .  S
Fe332       O335   2.059       .  S
Fe332       O339   2.068       .  S
Fe332       O343   2.073       .  S
Fe332       O348   2.048       .  S
Fe332       O342   1.972       .  S
Fe333       O351   2.081       .  S
Fe333       O338   2.099       .  S
Fe333       O345   2.110       .  S
Fe333       O334   2.088       .  S
Fe333       O342   1.984       .  S
O334        C341   1.272       .  A
O335        C349   1.270       .  A
O336        C341   1.268       .  A
O337        C340   1.263       .  A
O338        C350   1.274       .  A
O339        C352   1.267       .  A
C340        O345   1.275       .  A
C340       C1991   1.478       .  S
C341       C2038   1.475       .  S
O343        C346   1.269       .  A
O344        C346   1.266       .  A
C346       C1918   1.473       .  S
O347        C352   1.267       .  A
O348        C350   1.267       .  A
C349        O351   1.273       .  A
C349       C2101   1.492       .  S
C350       C1898   1.488       .  S
C352       C1908   1.471       .  S
Fe353       O369   2.044       .  S
Fe353       O359   2.040       .  S
Fe353       O366   2.047       .  S
Fe353       O358   2.030       .  S
Fe353       O364   1.966       .  S
Fe354       O357   2.045       .  S
Fe354       O361   2.076       .  S
Fe354       O365   2.064       .  S
Fe354       O370   2.058       .  S
Fe354       O364   1.973       .  S
Fe355       O373   2.104       .  S
Fe355       O360   2.084       .  S
Fe355       O367   2.095       .  S
Fe355       O356   2.119       .  S
Fe355       O364   1.994       .  S
O356        C363   1.278       .  A
O357        C371   1.267       .  A
O358        C363   1.263       .  A
O359        C362   1.262       .  A
O360        C372   1.272       .  A
O361        C374   1.271       .  A
C362        O367   1.270       .  A
C362       C2051   1.474       .  S
C363       C1948   1.479       .  S
O365        C368   1.265       .  A
O366        C368   1.264       .  A
C368       C1891   1.471       .  S
O369        C374   1.267       .  A
O370        C372   1.269       .  A
C371        O373   1.276       .  A
C371       C1868   1.495       .  S
C372       C1878   1.486       .  S
C374       C1921   1.476       .  S
Fe375       O391   2.046       .  S
Fe375       O381   2.070       .  S
Fe375       O388   2.054       .  S
Fe375       O380   2.038       .  S
Fe375       O386   1.948       .  S
Fe376       O379   2.048       .  S
Fe376       O383   2.085       .  S
Fe376       O387   2.067       .  S
Fe376       O392   2.073       .  S
Fe376       O386   1.961       .  S
Fe377       O395   2.094       .  S
Fe377       O382   2.084       .  S
Fe377       O389   2.093       .  S
Fe377       O378   2.113       .  S
Fe377       O386   1.971       .  S
O378        C385   1.276       .  A
O379        C393   1.267       .  A
O380        C385   1.263       .  A
O381        C384   1.268       .  A
O382        C394   1.276       .  A
O383        C396   1.273       .  A
C384        O389   1.273       .  A
C384       C1941   1.481       .  S
C385       C1978   1.478       .  S
O387        C390   1.266       .  A
O388        C390   1.267       .  A
C390       C1911   1.468       .  S
O391        C396   1.267       .  A
O392        C394   1.274       .  A
C393        O395   1.273       .  A
C393       C1858   1.483       .  S
C394       C2068   1.493       .  S
C396       C1888   1.479       .  S
Fe397       O413   2.044       .  S
Fe397       O403   2.035       .  S
Fe397       O410   2.042       .  S
Fe397       O402   2.050       .  S
Fe397       O408   1.964       .  S
Fe398       O401   2.059       .  S
Fe398       O405   2.068       .  S
Fe398       O409   2.075       .  S
Fe398       O414   2.047       .  S
Fe398       O408   1.976       .  S
Fe399       O417   2.091       .  S
Fe399       O404   2.094       .  S
Fe399       O411   2.110       .  S
Fe399       O400   2.097       .  S
Fe399       O408   1.985       .  S
O400        C407   1.273       .  A
O401        C415   1.270       .  A
O402        C407   1.265       .  A
O403        C406   1.262       .  A
O404        C416   1.274       .  A
O405        C418   1.267       .  A
C406        O411   1.275       .  A
C406       C1838   1.477       .  S
C407       C1818   1.477       .  S
O409        C412   1.269       .  A
O410        C412   1.265       .  A
C412       C1828   1.479       .  S
O413        C418   1.265       .  A
O414        C416   1.266       .  A
C415        O417   1.275       .  A
C415       C2361   1.492       .  S
C416       C1931   1.489       .  S
C418       C1848   1.472       .  S
Fe419       O435   2.040       .  S
Fe419       O425   2.042       .  S
Fe419       O432   2.050       .  S
Fe419       O424   2.029       .  S
Fe419       O430   1.965       .  S
Fe420       O423   2.042       .  S
Fe420       O427   2.074       .  S
Fe420       O431   2.068       .  S
Fe420       O436   2.057       .  S
Fe420       O430   1.978       .  S
Fe421       O439   2.087       .  S
Fe421       O426   2.083       .  S
Fe421       O433   2.097       .  S
Fe421       O422   2.103       .  S
Fe421       O430   1.997       .  S
O422        C429   1.274       .  A
O423        C437   1.265       .  A
O424        C429   1.262       .  A
O425        C428   1.263       .  A
O426        C438   1.273       .  A
O427        C440   1.270       .  A
C428        O433   1.272       .  A
C428       C1788   1.475       .  S
C429       C1798   1.472       .  S
O431        C434   1.266       .  A
O432        C434   1.265       .  A
C434       C1808   1.474       .  S
O435        C440   1.265       .  A
O436        C438   1.270       .  A
C437        O439   1.272       .  A
C437       C1971   1.484       .  S
C438       C1778   1.483       .  S
C440       C1831   1.476       .  S
Fe441       O457   2.045       .  S
Fe441       O447   2.038       .  S
Fe441       O454   2.046       .  S
Fe441       O446   2.033       .  S
Fe441       O452   1.959       .  S
Fe442       O445   2.044       .  S
Fe442       O449   2.079       .  S
Fe442       O453   2.065       .  S
Fe442       O458   2.052       .  S
Fe442       O452   1.974       .  S
Fe443       O461   2.094       .  S
Fe443       O448   2.090       .  S
Fe443       O455   2.096       .  S
Fe443       O444   2.109       .  S
Fe443       O452   1.990       .  S
O444        C451   1.275       .  A
O445        C459   1.268       .  A
O446        C451   1.262       .  A
O447        C450   1.263       .  A
O448        C460   1.273       .  A
O449        C462   1.269       .  A
C450        O455   1.273       .  A
C450       C1771   1.471       .  S
C451       C1758   1.476       .  S
O453        C456   1.267       .  A
O454        C456   1.266       .  A
C456       C1851   1.469       .  S
O457        C462   1.264       .  A
O458        C460   1.268       .  A
C459        O461   1.275       .  A
C459       C1748   1.483       .  S
C460       C2398   1.489       .  S
C462       C1811   1.477       .  S
Fe463       O479   2.044       .  S
Fe463       O469   2.038       .  S
Fe463       O476   2.048       .  S
Fe463       O468   2.041       .  S
Fe463       O474   1.964       .  S
Fe464       O467   2.050       .  S
Fe464       O471   2.082       .  S
Fe464       O475   2.070       .  S
Fe464       O480   2.055       .  S
Fe464       O474   1.978       .  S
Fe465       O483   2.086       .  S
Fe465       O470   2.093       .  S
Fe465       O477   2.109       .  S
Fe465       O466   2.097       .  S
Fe465       O474   1.993       .  S
O466        C473   1.272       .  A
O467        C481   1.268       .  A
O468        C473   1.262       .  A
O469        C472   1.264       .  A
O470        C482   1.274       .  A
O471        C484   1.269       .  A
C472        O477   1.276       .  A
C472       C1791   1.477       .  S
C473       C1821   1.475       .  S
O475        C478   1.268       .  A
O476        C478   1.266       .  A
C478       C1728   1.475       .  S
O479        C484   1.264       .  A
O480        C482   1.269       .  A
C481        O483   1.273       .  A
C481       C2281   1.483       .  S
C482       C1718   1.488       .  S
C484       C1741   1.479       .  S
Fe485       O501   2.052       .  S
Fe485       O491   2.050       .  S
Fe485       O498   2.049       .  S
Fe485       O490   2.045       .  S
Fe485       O496   1.962       .  S
Fe486       O489   2.061       .  S
Fe486       O493   2.068       .  S
Fe486       O497   2.083       .  S
Fe486       O502   2.048       .  S
Fe486       O496   1.975       .  S
Fe487       O505   2.089       .  S
Fe487       O492   2.075       .  S
Fe487       O499   2.086       .  S
Fe487       O488   2.098       .  S
Fe487       O496   1.994       .  S
O488        C495   1.272       .  A
O489        C503   1.271       .  A
O490        C495   1.265       .  A
O491        C494   1.265       .  A
O492        C504   1.270       .  A
O493        C506   1.267       .  A
C494        O499   1.270       .  A
C494       C1768   1.472       .  S
C495       C1801   1.475       .  S
O497        C500   1.271       .  A
O498        C500   1.267       .  A
C500       C1738   1.480       .  S
O501        C506   1.267       .  A
O502        C504   1.268       .  A
C503        O505   1.273       .  A
C503       C1901   1.485       .  S
C504       C2311   1.480       .  S
C506       C1708   1.477       .  S
Fe507       O523   2.040       .  S
Fe507       O513   2.039       .  S
Fe507       O520   2.043       .  S
Fe507       O512   2.037       .  S
Fe507       O518   1.961       .  S
Fe508       O511   2.050       .  S
Fe508       O515   2.077       .  S
Fe508       O519   2.074       .  S
Fe508       O524   2.056       .  S
Fe508       O518   1.976       .  S
Fe509       O527   2.092       .  S
Fe509       O514   2.091       .  S
Fe509       O521   2.099       .  S
Fe509       O510   2.106       .  S
Fe509       O518   1.991       .  S
O510        C517   1.275       .  A
O511        C525   1.269       .  A
O512        C517   1.263       .  A
O513        C516   1.263       .  A
O514        C526   1.273       .  A
O515        C528   1.269       .  A
C516        O521   1.272       .  A
C516       C1841   1.475       .  S
C517       C1761   1.476       .  S
O519        C522   1.269       .  A
O520        C522   1.265       .  A
C522       C1711   1.471       .  S
O523        C528   1.264       .  A
O524        C526   1.269       .  A
C525        O527   1.274       .  A
C525       C1701   1.486       .  S
C526       C1871   1.498       .  S
C528       C1731   1.477       .  S
Fe529       O545   2.046       .  S
Fe529       O535   2.060       .  S
Fe529       O542   2.051       .  S
Fe529       O534   2.033       .  S
Fe529       O540   1.943       .  S
Fe530       O533   2.052       .  S
Fe530       O537   2.091       .  S
Fe530       O541   2.074       .  S
Fe530       O546   2.076       .  S
Fe530       O540   1.956       .  S
Fe531       O549   2.096       .  S
Fe531       O536   2.079       .  S
Fe531       O543   2.090       .  S
Fe531       O532   2.115       .  S
Fe531       O540   1.964       .  S
O532        C539   1.279       .  A
O533        C547   1.270       .  A
O534        C539   1.265       .  A
O535        C538   1.265       .  A
O536        C548   1.272       .  A
O537        C550   1.274       .  A
C538        O543   1.270       .  A
C538       C1678   1.477       .  S
C539       C1688   1.474       .  S
O541        C544   1.269       .  A
O542        C544   1.266       .  A
C544       C1658   1.470       .  S
O545        C550   1.268       .  A
O546        C548   1.274       .  A
C547        O549   1.276       .  A
C547       C1648   1.483       .  S
C548       C2441   1.488       .  S
C550       C1671   1.480       .  S
Fe551       O567   2.044       .  S
Fe551       O557   2.033       .  S
Fe551       O564   2.040       .  S
Fe551       O556   2.044       .  S
Fe551       O562   1.963       .  S
Fe552       O555   2.068       .  S
Fe552       O559   2.066       .  S
Fe552       O563   2.084       .  S
Fe552       O568   2.050       .  S
Fe552       O562   1.978       .  S
Fe553       O571   2.083       .  S
Fe553       O558   2.090       .  S
Fe553       O565   2.112       .  S
Fe553       O554   2.093       .  S
Fe553       O562   1.989       .  S
O554        C561   1.271       .  A
O555        C569   1.271       .  A
O556        C561   1.263       .  A
O557        C560   1.263       .  A
O558        C570   1.274       .  A
O559        C572   1.267       .  A
C560        O565   1.276       .  A
C560       C1681   1.478       .  S
C561       C1631   1.474       .  S
O563        C566   1.270       .  A
O564        C566   1.264       .  A
C566       C1638   1.480       .  S
O567        C572   1.266       .  A
O568        C570   1.268       .  A
C569        O571   1.272       .  A
C569       C1608   1.490       .  S
C570       C2291   1.481       .  S
C572       C1618   1.470       .  S
Fe573       O589   2.050       .  S
Fe573       O579   2.040       .  S
Fe573       O586   2.051       .  S
Fe573       O578   2.045       .  S
Fe573       O584   1.964       .  S
Fe574       O577   2.054       .  S
Fe574       O581   2.063       .  S
Fe574       O585   2.075       .  S
Fe574       O590   2.046       .  S
Fe574       O584   1.975       .  S
Fe575       O593   2.084       .  S
Fe575       O580   2.090       .  S
Fe575       O587   2.107       .  S
Fe575       O576   2.094       .  S
Fe575       O584   1.991       .  S
O576        C583   1.272       .  A
O577        C591   1.269       .  A
O578        C583   1.264       .  A
O579        C582   1.264       .  A
O580        C592   1.274       .  A
O581        C594   1.266       .  A
C582        O587   1.275       .  A
C582       C1601   1.478       .  S
C583       C1628   1.474       .  S
O585        C588   1.270       .  A
O586        C588   1.266       .  A
C588       C1668   1.476       .  S
O589        C594   1.266       .  A
O590        C592   1.268       .  A
C591        O593   1.272       .  A
C591       C1578   1.488       .  S
C592       C1568   1.487       .  S
C594       C1588   1.470       .  S
Fe595       O611   2.053       .  S
Fe595       O601   2.036       .  S
Fe595       O608   2.039       .  S
Fe595       O600   2.045       .  S
Fe595       O606   1.964       .  S
Fe596       O599   2.048       .  S
Fe596       O603   2.070       .  S
Fe596       O607   2.073       .  S
Fe596       O612   2.046       .  S
Fe596       O606   1.980       .  S
Fe597       O615   2.086       .  S
Fe597       O602   2.091       .  S
Fe597       O609   2.099       .  S
Fe597       O598   2.096       .  S
Fe597       O606   1.996       .  S
O598        C605   1.273       .  A
O599        C613   1.269       .  A
O600        C605   1.265       .  A
O601        C604   1.262       .  A
O602        C614   1.273       .  A
O603        C616   1.267       .  A
C604        O609   1.273       .  A
C604       C1558   1.474       .  S
C605       C1548   1.475       .  S
O607        C610   1.268       .  A
O608        C610   1.264       .  A
C610       C1591   1.472       .  S
O611        C616   1.267       .  A
O612        C614   1.266       .  A
C613        O615   1.273       .  A
C613       C2391   1.485       .  S
C614       C1541   1.492       .  S
C616       C1661   1.479       .  S
Fe617       O633   2.048       .  S
Fe617       O623   2.059       .  S
Fe617       O630   2.048       .  S
Fe617       O622   2.031       .  S
Fe617       O628   1.943       .  S
Fe618       O621   2.039       .  S
Fe618       O625   2.096       .  S
Fe618       O629   2.059       .  S
Fe618       O634   2.071       .  S
Fe618       O628   1.954       .  S
Fe619       O637   2.096       .  S
Fe619       O624   2.080       .  S
Fe619       O631   2.086       .  S
Fe619       O620   2.116       .  S
Fe619       O628   1.970       .  S
O620        C627   1.278       .  A
O621        C635   1.268       .  A
O622        C627   1.264       .  A
O623        C626   1.266       .  A
O624        C636   1.273       .  A
O625        C638   1.275       .  A
C626        O631   1.270       .  A
C626       C1561   1.473       .  S
C627       C1691   1.475       .  S
O629        C632   1.264       .  A
O630        C632   1.265       .  A
C632       C1621   1.465       .  S
O633        C638   1.268       .  A
O634        C636   1.273       .  A
C635        O637   1.274       .  A
C635       C1518   1.480       .  S
C636       C1508   1.487       .  S
C638       C1528   1.487       .  S
Fe639       O655   2.039       .  S
Fe639       O645   2.039       .  S
Fe639       O652   2.045       .  S
Fe639       O644   2.030       .  S
Fe639       O650   1.964       .  S
Fe640       O643   2.054       .  S
Fe640       O647   2.081       .  S
Fe640       O651   2.082       .  S
Fe640       O656   2.063       .  S
Fe640       O650   1.975       .  S
Fe641       O659   2.097       .  S
Fe641       O646   2.091       .  S
Fe641       O653   2.104       .  S
Fe641       O642   2.111       .  S
Fe641       O650   1.991       .  S
O642        C649   1.276       .  A
O643        C657   1.270       .  A
O644        C649   1.263       .  A
O645        C648   1.261       .  A
O646        C658   1.274       .  A
O647        C660   1.271       .  A
C648        O653   1.273       .  A
C648       C1598   1.478       .  S
C649       C1551   1.475       .  S
O651        C654   1.270       .  A
O652        C654   1.264       .  A
C654       C1531   1.477       .  S
O655        C660   1.265       .  A
O656        C658   1.271       .  A
C657        O659   1.275       .  A
C657       C2268   1.490       .  S
C658       C1498   1.488       .  S
C660       C1641   1.480       .  S
Fe661       O677   2.049       .  S
Fe661       O667   2.049       .  S
Fe661       O674   2.053       .  S
Fe661       O666   2.041       .  S
Fe661       O672   1.956       .  S
Fe662       O665   2.043       .  S
Fe662       O669   2.072       .  S
Fe662       O673   2.066       .  S
Fe662       O678   2.052       .  S
Fe662       O672   1.970       .  S
Fe663       O681   2.095       .  S
Fe663       O668   2.086       .  S
Fe663       O675   2.093       .  S
Fe663       O664   2.113       .  S
Fe663       O672   1.984       .  S
O664        C671   1.278       .  A
O665        C679   1.268       .  A
O666        C671   1.266       .  A
O667        C670   1.263       .  A
O668        C680   1.272       .  A
O669        C682   1.268       .  A
C670        O675   1.270       .  A
C670       C1488   1.476       .  S
C671       C1478   1.479       .  S
O673        C676   1.267       .  A
O674        C676   1.266       .  A
C676       C1471   1.468       .  S
O677        C682   1.266       .  A
O678        C680   1.267       .  A
C679        O681   1.276       .  A
C679       C1448   1.484       .  S
C680       C1581   1.487       .  S
C682       C1458   1.471       .  S
Fe683       O699   2.038       .  S
Fe683       O689   2.040       .  S
Fe683       O696   2.049       .  S
Fe683       O688   2.032       .  S
Fe683       O694   1.961       .  S
Fe684       O687   2.047       .  S
Fe684       O691   2.075       .  S
Fe684       O695   2.071       .  S
Fe684       O700   2.057       .  S
Fe684       O694   1.977       .  S
Fe685       O703   2.085       .  S
Fe685       O690   2.092       .  S
Fe685       O697   2.107       .  S
Fe685       O686   2.100       .  S
Fe685       O694   1.990       .  S
O686        C693   1.271       .  A
O687        C701   1.266       .  A
O688        C693   1.260       .  A
O689        C692   1.265       .  A
O690        C702   1.275       .  A
O691        C704   1.268       .  A
C692        O697   1.277       .  A
C692       C1428   1.475       .  S
C693       C1438   1.474       .  S
O695        C698   1.269       .  A
O696        C698   1.266       .  A
C698       C1461   1.471       .  S
O699        C704   1.263       .  A
O700        C702   1.271       .  A
C701        O703   1.271       .  A
C701       C1781   1.482       .  S
C702       C1408   1.490       .  S
C704       C1418   1.476       .  S
Fe705       O721   2.044       .  S
Fe705       O711   2.033       .  S
Fe705       O718   2.042       .  S
Fe705       O710   2.044       .  S
Fe705       O716   1.964       .  S
Fe706       O709   2.055       .  S
Fe706       O713   2.073       .  S
Fe706       O717   2.074       .  S
Fe706       O722   2.045       .  S
Fe706       O716   1.979       .  S
Fe707       O725   2.090       .  S
Fe707       O712   2.084       .  S
Fe707       O719   2.101       .  S
Fe707       O708   2.101       .  S
Fe707       O716   1.996       .  S
O708        C715   1.275       .  A
O709        C723   1.271       .  A
O710        C715   1.265       .  A
O711        C714   1.261       .  A
O712        C724   1.271       .  A
O713        C726   1.268       .  A
C714        O719   1.272       .  A
C714       C1401   1.474       .  S
C715       C1391   1.476       .  S
O717        C720   1.269       .  A
O718        C720   1.265       .  A
C720       C1421   1.480       .  S
O721        C726   1.265       .  A
O722        C724   1.266       .  A
C723        O725   1.275       .  A
C723       C1538   1.491       .  S
C724       C1751   1.481       .  S
C726       C1468   1.475       .  S
Fe727       O743   2.039       .  S
Fe727       O733   2.044       .  S
Fe727       O740   2.050       .  S
Fe727       O732   2.034       .  S
Fe727       O738   1.965       .  S
Fe728       O731   2.057       .  S
Fe728       O735   2.074       .  S
Fe728       O739   2.073       .  S
Fe728       O744   2.055       .  S
Fe728       O738   1.982       .  S
Fe729       O747   2.091       .  S
Fe729       O734   2.081       .  S
Fe729       O741   2.094       .  S
Fe729       O730   2.107       .  S
Fe729       O738   1.995       .  S
O730        C737   1.275       .  A
O731        C745   1.269       .  A
O732        C737   1.262       .  A
O733        C736   1.264       .  A
O734        C746   1.271       .  A
O735        C748   1.269       .  A
C736        O741   1.272       .  A
C736       C1398   1.474       .  S
C737       C1481   1.475       .  S
O739        C742   1.268       .  A
O740        C742   1.266       .  A
C742       C1381   1.474       .  S
O743        C748   1.264       .  A
O744        C746   1.269       .  A
C745        O747   1.274       .  A
C745       C1358   1.487       .  S
C746       C1698   1.481       .  S
C748       C1368   1.471       .  S
Fe749       O765   2.047       .  S
Fe749       O755   2.039       .  S
Fe749       O762   2.041       .  S
Fe749       O754   2.043       .  S
Fe749       O760   1.966       .  S
Fe750       O753   2.058       .  S
Fe750       O757   2.076       .  S
Fe750       O761   2.077       .  S
Fe750       O766   2.059       .  S
Fe750       O760   1.981       .  S
Fe751       O769   2.089       .  S
Fe751       O756   2.095       .  S
Fe751       O763   2.104       .  S
Fe751       O752   2.102       .  S
Fe751       O760   1.996       .  S
O752        C759   1.273       .  A
O753        C767   1.270       .  A
O754        C759   1.264       .  A
O755        C758   1.263       .  A
O756        C768   1.275       .  A
O757        C770   1.269       .  A
C758        O763   1.274       .  A
C758       C1491   1.476       .  S
C759       C1441   1.476       .  S
O761        C764   1.269       .  A
O762        C764   1.265       .  A
C764       C1348   1.474       .  S
O765        C770   1.266       .  A
O766        C768   1.269       .  A
C767        O769   1.273       .  A
C767       C1721   1.488       .  S
C768       C1611   1.491       .  S
C770       C1378   1.478       .  S
Fe771       O787   2.050       .  S
Fe771       O777   2.038       .  S
Fe771       O784   2.050       .  S
Fe771       O776   2.041       .  S
Fe771       O782   1.965       .  S
Fe772       O775   2.046       .  S
Fe772       O779   2.068       .  S
Fe772       O783   2.065       .  S
Fe772       O788   2.043       .  S
Fe772       O782   1.977       .  S
Fe773       O791   2.094       .  S
Fe773       O778   2.096       .  S
Fe773       O785   2.108       .  S
Fe773       O774   2.101       .  S
Fe773       O782   1.997       .  S
O774        C781   1.273       .  A
O775        C789   1.267       .  A
O776        C781   1.263       .  A
O777        C780   1.264       .  A
O778        C790   1.274       .  A
O779        C792   1.267       .  A
C780        O785   1.275       .  A
C780       C1431   1.478       .  S
C781       C1388   1.477       .  S
O783        C786   1.267       .  A
O784        C786   1.266       .  A
C786       C1371   1.471       .  S
O787        C792   1.266       .  A
O788        C790   1.267       .  A
C789        O791   1.274       .  A
C789       C1511   1.491       .  S
C790       C1338   1.485       .  S
C792       C1351   1.474       .  S
Fe793       O809   2.050       .  S
Fe793       O799   2.044       .  S
Fe793       O806   2.043       .  S
Fe793       O798   2.042       .  S
Fe793       O804   1.962       .  S
Fe794       O797   2.049       .  S
Fe794       O801   2.081       .  S
Fe794       O805   2.068       .  S
Fe794       O810   2.058       .  S
Fe794       O804   1.980       .  S
Fe795       O813   2.093       .  S
Fe795       O800   2.090       .  S
Fe795       O807   2.095       .  S
Fe795       O796   2.107       .  S
Fe795       O804   1.997       .  S
O796        C803   1.275       .  A
O797        C811   1.269       .  A
O798        C803   1.264       .  A
O799        C802   1.264       .  A
O800        C812   1.272       .  A
O801        C814   1.269       .  A
C802        O807   1.272       .  A
C802       C1308   1.475       .  S
C803       C1301   1.478       .  S
O805        C808   1.267       .  A
O806        C808   1.266       .  A
C808       C1328   1.469       .  S
O809        C814   1.266       .  A
O810        C812   1.269       .  A
C811        O813   1.274       .  A
C811       C2081   1.486       .  S
C812       C1288   1.488       .  S
C814       C1321   1.477       .  S
Fe815       O831   2.050       .  S
Fe815       O821   2.036       .  S
Fe815       O828   2.044       .  S
Fe815       O820   2.053       .  S
Fe815       O826   1.959       .  S
Fe816       O819   2.058       .  S
Fe816       O823   2.060       .  S
Fe816       O827   2.077       .  S
Fe816       O832   2.038       .  S
Fe816       O826   1.973       .  S
Fe817       O835   2.081       .  S
Fe817       O822   2.091       .  S
Fe817       O829   2.111       .  S
Fe817       O818   2.091       .  S
Fe817       O826   1.988       .  S
O818        C825   1.271       .  A
O819        C833   1.270       .  A
O820        C825   1.265       .  A
O821        C824   1.264       .  A
O822        C834   1.273       .  A
O823        C836   1.264       .  A
C824        O829   1.276       .  A
C824       C1268   1.479       .  S
C825       C1258   1.475       .  S
O827        C830   1.271       .  A
O828        C830   1.267       .  A
C830       C1281   1.477       .  S
O831        C836   1.265       .  A
O832        C834   1.266       .  A
C833        O835   1.273       .  A
C833       C1248   1.483       .  S
C834       C1521   1.484       .  S
C836       C1331   1.470       .  S
Fe837       O853   2.049       .  S
Fe837       O843   2.038       .  S
Fe837       O850   2.043       .  S
Fe837       O842   2.040       .  S
Fe837       O848   1.963       .  S
Fe838       O841   2.059       .  S
Fe838       O845   2.065       .  S
Fe838       O849   2.085       .  S
Fe838       O854   2.045       .  S
Fe838       O848   1.978       .  S
Fe839       O857   2.091       .  S
Fe839       O844   2.102       .  S
Fe839       O851   2.112       .  S
Fe839       O840   2.100       .  S
Fe839       O848   1.992       .  S
O840        C847   1.272       .  A
O841        C855   1.268       .  A
O842        C847   1.263       .  A
O843        C846   1.263       .  A
O844        C856   1.277       .  A
O845        C858   1.268       .  A
C846        O851   1.276       .  A
C846       C1238   1.480       .  S
C847       C1231   1.476       .  S
O849        C852   1.269       .  A
O850        C852   1.263       .  A
C852       C1318   1.479       .  S
O853        C858   1.267       .  A
O854        C856   1.269       .  A
C855        O857   1.272       .  A
C855       C1501   1.488       .  S
C856       C2061   1.492       .  S
C858       C1278   1.469       .  S
Fe859       O875   2.050       .  S
Fe859       O865   2.037       .  S
Fe859       O872   2.045       .  S
Fe859       O864   2.040       .  S
Fe859       O870   1.967       .  S
Fe860       O863   2.039       .  S
Fe860       O867   2.068       .  S
Fe860       O871   2.059       .  S
Fe860       O876   2.044       .  S
Fe860       O870   1.979       .  S
Fe861       O879   2.089       .  S
Fe861       O866   2.091       .  S
Fe861       O873   2.100       .  S
Fe861       O862   2.104       .  S
Fe861       O870   1.994       .  S
O862        C869   1.274       .  A
O863        C877   1.265       .  A
O864        C869   1.263       .  A
O865        C868   1.263       .  A
O866        C878   1.274       .  A
O867        C880   1.267       .  A
C868        O873   1.273       .  A
C868       C1311   1.473       .  S
C869       C1228   1.476       .  S
O871        C874   1.266       .  A
O872        C874   1.265       .  A
C874       C1211   1.469       .  S
O875        C880   1.266       .  A
O876        C878   1.267       .  A
C877        O879   1.273       .  A
C877       C1571   1.484       .  S
C878       C1201   1.486       .  S
C880       C1218   1.478       .  S
Fe881       O897   2.036       .  S
Fe881       O887   2.051       .  S
Fe881       O894   2.049       .  S
Fe881       O886   2.031       .  S
Fe881       O892   1.963       .  S
Fe882       O885   2.046       .  S
Fe882       O889   2.072       .  S
Fe882       O893   2.070       .  S
Fe882       O898   2.053       .  S
Fe882       O892   1.979       .  S
Fe883       O901   2.096       .  S
Fe883       O888   2.094       .  S
Fe883       O895   2.103       .  S
Fe883       O884   2.110       .  S
Fe883       O892   1.991       .  S
O884        C891   1.275       .  A
O885        C899   1.266       .  A
O886        C891   1.262       .  A
O887        C890   1.265       .  A
O888        C900   1.275       .  A
O889        C902   1.269       .  A
C890        O895   1.274       .  A
C890       C1241   1.481       .  S
C891       C1261   1.477       .  S
O893        C896   1.266       .  A
O894        C896   1.265       .  A
C896       C1188   1.474       .  S
O897        C902   1.264       .  A
O898        C900   1.270       .  A
C899        O901   1.273       .  A
C899       C1178   1.489       .  S
C900       C2161   1.491       .  S
C902       C1208   1.470       .  S
Fe903       O919   2.049       .  S
Fe903       O909   2.033       .  S
Fe903       O916   2.040       .  S
Fe903       O908   2.059       .  S
Fe903       O914   1.953       .  S
Fe904       O907   2.073       .  S
Fe904       O911   2.067       .  S
Fe904       O915   2.089       .  S
Fe904       O920   2.047       .  S
Fe904       O914   1.970       .  S
Fe905       O923   2.082       .  S
Fe905       O910   2.094       .  S
Fe905       O917   2.116       .  S
Fe905       O906   2.090       .  S
Fe905       O914   1.980       .  S
O906        C913   1.272       .  A
O907        C921   1.274       .  A
O908        C913   1.266       .  A
O909        C912   1.262       .  A
O910        C922   1.273       .  A
O911        C924   1.266       .  A
C912        O917   1.277       .  A
C912       C1271   1.476       .  S
C913       C1298   1.476       .  S
O915        C918   1.273       .  A
O916        C918   1.266       .  A
C918       C1221   1.481       .  S
O919        C924   1.266       .  A
O920        C922   1.267       .  A
C921        O923   1.274       .  A
C921       C2131   1.487       .  S
C922       C1651   1.483       .  S
C924       C1191   1.470       .  S
Fe925       O941   2.051       .  S
Fe925       O931   2.034       .  S
Fe925       O938   2.049       .  S
Fe925       O930   2.042       .  S
Fe925       O936   1.968       .  S
Fe926       O929   2.056       .  S
Fe926       O933   2.072       .  S
Fe926       O937   2.073       .  S
Fe926       O942   2.052       .  S
Fe926       O936   1.979       .  S
Fe927       O945   2.090       .  S
Fe927       O932   2.090       .  S
Fe927       O939   2.102       .  S
Fe927       O928   2.103       .  S
Fe927       O936   1.998       .  S
O928        C935   1.274       .  A
O929        C943   1.270       .  A
O930        C935   1.263       .  A
O931        C934   1.263       .  A
O932        C944   1.273       .  A
O933        C946   1.267       .  A
C934        O939   1.274       .  A
C934       C1158   1.473       .  S
C935       C1138   1.478       .  S
O937        C940   1.269       .  A
O938        C940   1.267       .  A
C940       C1151   1.477       .  S
O941        C946   1.265       .  A
O942        C944   1.267       .  A
C943        O945   1.274       .  A
C943       C1881   1.486       .  S
C944       C1361   1.485       .  S
C946       C1168   1.477       .  S
Fe947       O963   2.041       .  S
Fe947       O953   2.043       .  S
Fe947       O960   2.041       .  S
Fe947       O952   2.037       .  S
Fe947       O958   1.964       .  S
Fe948       O951   2.047       .  S
Fe948       O955   2.084       .  S
Fe948       O959   2.066       .  S
Fe948       O964   2.060       .  S
Fe948       O958   1.981       .  S
Fe949       O967   2.086       .  S
Fe949       O954   2.074       .  S
Fe949       O961   2.089       .  S
Fe949       O950   2.105       .  S
Fe949       O958   1.994       .  S
O950        C957   1.274       .  A
O951        C965   1.267       .  A
O952        C957   1.263       .  A
O953        C956   1.263       .  A
O954        C966   1.270       .  A
O955        C968   1.271       .  A
C956        O961   1.270       .  A
C956       C1161   1.472       .  S
C957       C1118   1.476       .  S
O959        C962   1.266       .  A
O960        C962   1.264       .  A
C962       C1108   1.469       .  S
O963        C968   1.265       .  A
O964        C966   1.270       .  A
C965        O967   1.273       .  A
C965       C1198   1.487       .  S
C966       C1451   1.480       .  S
C968       C1128   1.482       .  S
Fe969       O985   2.051       .  S
Fe969       O975   2.033       .  S
Fe969       O982   2.043       .  S
Fe969       O974   2.047       .  S
Fe969       O980   1.966       .  S
Fe970       O973   2.057       .  S
Fe970       O977   2.075       .  S
Fe970       O981   2.078       .  S
Fe970       O986   2.050       .  S
Fe970       O980   1.980       .  S
Fe971       O989   2.092       .  S
Fe971       O976   2.094       .  S
Fe971       O983   2.110       .  S
Fe971       O972   2.101       .  S
Fe971       O980   1.997       .  S
O972        C979   1.274       .  A
O973        C987   1.270       .  A
O974        C979   1.265       .  A
O975        C978   1.262       .  A
O976        C988   1.273       .  A
O977        C990   1.268       .  A
C978        O983   1.275       .  A
C978       C1098   1.477       .  S
C979       C1141   1.478       .  S
O981        C984   1.269       .  A
O982        C984   1.265       .  A
C984       C1131   1.479       .  S
O985        C990   1.266       .  A
O986        C988   1.267       .  A
C987        O989   1.275       .  A
C987       C2011   1.488       .  S
C988       C1181   1.488       .  S
C990       C1088   1.476       .  S
Fe991      O1007   2.044       .  S
Fe991       O997   2.063       .  S
Fe991      O1004   2.055       .  S
Fe991       O996   2.032       .  S
Fe991      O1002   1.948       .  S
Fe992       O995   2.046       .  S
Fe992       O999   2.074       .  S
Fe992      O1003   2.071       .  S
Fe992      O1008   2.059       .  S
Fe992      O1002   1.960       .  S
Fe993      O1011   2.098       .  S
Fe993       O998   2.086       .  S
Fe993      O1005   2.085       .  S
Fe993       O994   2.119       .  S
Fe993      O1002   1.970       .  S
O994       C1001   1.279       .  A
O995       C1009   1.267       .  A
O996       C1001   1.264       .  A
O997       C1000   1.266       .  A
O998       C1010   1.275       .  A
O999       C1012   1.271       .  A
C1000      O1005   1.270       .  A
C1000      C1081   1.475       .  S
C1001      C1068   1.474       .  S
O1003      C1006   1.267       .  A
O1004      C1006   1.266       .  A
C1006      C1091   1.471       .  S
O1007      C1012   1.268       .  A
O1008      C1010   1.271       .  A
C1009      O1011   1.275       .  A
C1009      C1411   1.493       .  S
C1010      C1958   1.485       .  S
C1012      C1111   1.476       .  S
Fe1013     O1029   2.043       .  S
Fe1013     O1019   2.047       .  S
Fe1013     O1026   2.041       .  S
Fe1013     O1018   2.039       .  S
Fe1013     O1024   1.959       .  S
Fe1014     O1017   2.059       .  S
Fe1014     O1021   2.084       .  S
Fe1014     O1025   2.081       .  S
Fe1014     O1030   2.063       .  S
Fe1014     O1024   1.977       .  S
Fe1015     O1033   2.082       .  S
Fe1015     O1020   2.079       .  S
Fe1015     O1027   2.093       .  S
Fe1015     O1016   2.104       .  S
Fe1015     O1024   1.991       .  S
O1016      C1023   1.274       .  A
O1017      C1031   1.270       .  A
O1018      C1023   1.265       .  A
O1019      C1022   1.263       .  A
O1020      C1032   1.272       .  A
O1021      C1034   1.272       .  A
C1022      O1027   1.271       .  A
C1022      C1101   1.476       .  S
C1023      C1071   1.477       .  S
O1025      C1028   1.268       .  A
O1026      C1028   1.264       .  A
C1028      C1058   1.478       .  S
O1029      C1034   1.266       .  A
O1030      C1032   1.271       .  A
C1031      O1033   1.272       .  A
C1031      C1341   1.487       .  S
C1032      C1251   1.484       .  S
C1034      C1148   1.480       .  S
Fe1035     O1051   2.054       .  S
Fe1035     O1041   2.027       .  S
Fe1035     O1048   2.038       .  S
Fe1035     O1040   2.050       .  S
Fe1035     O1046   1.951       .  S
Fe1036     O1039   2.074       .  S
Fe1036     O1043   2.069       .  S
Fe1036     O1047   2.097       .  S
Fe1036     O1052   2.050       .  S
Fe1036     O1046   1.965       .  S
Fe1037     O1055   2.080       .  S
Fe1037     O1042   2.096       .  S
Fe1037     O1049   2.119       .  S
Fe1037     O1038   2.091       .  S
Fe1037     O1046   1.980       .  S
O1038      C1045   1.270       .  A
O1039      C1053   1.273       .  A
O1040      C1045   1.263       .  A
O1041      C1044   1.264       .  A
O1042      C1054   1.275       .  A
O1043      C1056   1.267       .  A
C1044      O1049   1.279       .  A
C1044      C1078   1.476       .  S
C1045      C1121   1.475       .  S
O1047      C1050   1.275       .  A
O1048      C1050   1.265       .  A
C1050      C1171   1.483       .  S
O1051      C1056   1.266       .  A
O1052      C1054   1.269       .  A
C1053      O1055   1.273       .  A
C1053      C1291   1.487       .  S
C1054      C1861   1.481       .  S
C1056      C1061   1.474       .  S
C1057      C1058   1.409       .  A
C1057      C1062   1.407       .  A
C1057      F1064   1.357       .  S
C1058      C1059   1.406       .  A
C1059      C1060   1.390       .  A
C1059      F1066   1.358       .  S
C1060      C1061   1.403       .  A
C1060      F1065   1.358       .  S
C1061      C1062   1.407       .  A
C1062      F1063   1.358       .  S
C1067      C1068   1.408       .  A
C1067      C1072   1.404       .  A
C1067      F1074   1.357       .  S
C1068      C1069   1.404       .  A
C1069      C1070   1.400       .  A
C1069      F1076   1.358       .  S
C1070      C1071   1.408       .  A
C1070      F1075   1.358       .  S
C1071      C1072   1.403       .  A
C1072      F1073   1.357       .  S
C1077      C1078   1.405       .  A
C1077      C1082   1.406       .  A
C1077      F1084   1.358       .  S
C1078      C1079   1.408       .  A
C1079      C1080   1.399       .  A
C1079      F1086   1.358       .  S
C1080      C1081   1.402       .  A
C1080      F1085   1.358       .  S
C1081      C1082   1.408       .  A
C1082      F1083   1.358       .  S
C1087      C1088   1.407       .  A
C1087      C1092   1.403       .  A
C1087      F1094   1.358       .  S
C1088      C1089   1.406       .  A
C1089      C1090   1.396       .  A
C1089      F1096   1.358       .  S
C1090      C1091   1.404       .  A
C1090      F1095   1.358       .  S
C1091      C1092   1.406       .  A
C1092      F1093   1.358       .  S
C1097      C1098   1.404       .  A
C1097      C1102   1.404       .  A
C1097      F1104   1.358       .  S
C1098      C1099   1.409       .  A
C1099      C1100   1.403       .  A
C1099      F1106   1.358       .  S
C1100      C1101   1.403       .  A
C1100      F1105   1.358       .  S
C1101      C1102   1.408       .  A
C1102      F1103   1.358       .  S
C1107      C1108   1.404       .  A
C1107      C1112   1.392       .  A
C1107      F1114   1.358       .  S
C1108      C1109   1.405       .  A
C1109      C1110   1.399       .  A
C1109      F1116   1.358       .  S
C1110      C1111   1.409       .  A
C1110      F1115   1.358       .  S
C1111      C1112   1.407       .  A
C1112      F1113   1.358       .  S
C1117      C1118   1.408       .  A
C1117      C1122   1.402       .  A
C1117      F1124   1.358       .  S
C1118      C1119   1.404       .  A
C1119      C1120   1.404       .  A
C1119      F1126   1.358       .  S
C1120      C1121   1.408       .  A
C1120      F1125   1.358       .  S
C1121      C1122   1.403       .  A
C1122      F1123   1.358       .  S
C1127      C1128   1.408       .  A
C1127      C1132   1.393       .  A
C1127      F1134   1.359       .  S
C1128      C1129   1.408       .  A
C1129      C1130   1.403       .  A
C1129      F1136   1.357       .  S
C1130      C1131   1.408       .  A
C1130      F1135   1.358       .  S
C1131      C1132   1.406       .  A
C1132      F1133   1.359       .  S
C1137      C1138   1.404       .  A
C1137      C1142   1.405       .  A
C1137      F1144   1.358       .  S
C1138      C1139   1.408       .  A
C1139      C1140   1.403       .  A
C1139      F1146   1.358       .  S
C1140      C1141   1.403       .  A
C1140      F1145   1.358       .  S
C1141      C1142   1.409       .  A
C1142      F1143   1.358       .  S
C1147      C1148   1.408       .  A
C1147      C1152   1.395       .  A
C1147      F1154   1.358       .  S
C1148      C1149   1.408       .  A
C1149      C1150   1.401       .  A
C1149      F1156   1.358       .  S
C1150      C1151   1.407       .  A
C1150      F1155   1.358       .  S
C1151      C1152   1.406       .  A
C1152      F1153   1.358       .  S
C1157      C1158   1.403       .  A
C1157      C1162   1.402       .  A
C1157      F1164   1.358       .  S
C1158      C1159   1.408       .  A
C1159      C1160   1.401       .  A
C1159      F1166   1.358       .  S
C1160      C1161   1.402       .  A
C1160      F1165   1.358       .  S
C1161      C1162   1.408       .  A
C1162      F1163   1.358       .  S
C1167      C1168   1.404       .  A
C1167      C1172   1.396       .  A
C1167      F1174   1.358       .  S
C1168      C1169   1.407       .  A
C1169      C1170   1.402       .  A
C1169      F1176   1.358       .  S
C1170      C1171   1.409       .  A
C1170      F1175   1.358       .  S
C1171      C1172   1.410       .  A
C1172      F1173   1.358       .  S
C1177      C1178   1.408       .  A
C1177      C1182   1.394   1_545  A
C1177      F1184   1.359       .  S
C1178      C1179   1.410       .  A
C1179      C1180   1.410   1_545  A
C1179      F1186   1.357       .  S
C1180      C1181   1.410       .  A
C1180      F1185   1.357       .  S
C1181      C1182   1.408       .  A
C1182      F1183   1.359       .  S
C1187      C1188   1.408       .  A
C1187      C1192   1.404       .  A
C1187      F1194   1.358       .  S
C1188      C1189   1.405       .  A
C1189      C1190   1.392       .  A
C1189      F1196   1.357       .  S
C1190      C1191   1.403       .  A
C1190      F1195   1.359       .  S
C1191      C1192   1.406       .  A
C1192      F1193   1.358       .  S
C1197      C1198   1.409       .  A
C1197      C1202   1.392   1_565  A
C1197      F1204   1.359       .  S
C1198      C1199   1.410       .  A
C1199      C1200   1.407   1_565  A
C1199      F1206   1.357       .  S
C1200      C1201   1.409       .  A
C1200      F1205   1.357       .  S
C1201      C1202   1.409       .  A
C1202      F1203   1.359       .  S
C1207      C1208   1.407       .  A
C1207      C1212   1.392       .  A
C1207      F1214   1.358       .  S
C1208      C1209   1.405       .  A
C1209      C1210   1.398       .  A
C1209      F1216   1.358       .  S
C1210      C1211   1.407       .  A
C1210      F1215   1.358       .  S
C1211      C1212   1.404       .  A
C1212      F1213   1.359       .  S
C1217      C1218   1.405       .  A
C1217      C1222   1.394       .  A
C1217      F1224   1.359       .  S
C1218      C1219   1.408       .  A
C1219      C1220   1.402       .  A
C1219      F1226   1.358       .  S
C1220      C1221   1.408       .  A
C1220      F1225   1.358       .  S
C1221      C1222   1.409       .  A
C1222      F1223   1.358       .  S
C1227      C1228   1.404       .  A
C1227      C1232   1.402       .  A
C1227      F1234   1.358       .  S
C1228      C1229   1.408       .  A
C1229      C1230   1.404       .  A
C1229      F1236   1.358       .  S
C1230      C1231   1.403       .  A
C1230      F1235   1.357       .  S
C1231      C1232   1.408       .  A
C1232      F1233   1.358       .  S
C1237      C1238   1.405       .  A
C1237      C1242   1.406       .  A
C1237      F1244   1.358       .  S
C1238      C1239   1.408       .  A
C1239      C1240   1.404       .  A
C1239      F1246   1.358       .  S
C1240      C1241   1.403       .  A
C1240      F1245   1.357       .  S
C1241      C1242   1.409       .  A
C1242      F1243   1.358       .  S
C1247      C1248   1.408       .  A
C1247      C1252   1.406       .  A
C1247      F1254   1.358       .  S
C1248      C1249   1.407       .  A
C1249      C1250   1.395       .  A
C1249      F1256   1.359       .  S
C1250      C1251   1.407       .  A
C1250      F1255   1.358       .  S
C1251      C1252   1.409       .  A
C1252      F1253   1.357       .  S
C1257      C1258   1.402       .  A
C1257      C1262   1.400       .  A
C1257      F1264   1.358       .  S
C1258      C1259   1.408       .  A
C1259      C1260   1.406       .  A
C1259      F1266   1.358       .  S
C1260      C1261   1.404       .  A
C1260      F1265   1.358       .  S
C1261      C1262   1.408       .  A
C1262      F1263   1.358       .  S
C1267      C1268   1.404       .  A
C1267      C1272   1.406       .  A
C1267      F1274   1.357       .  S
C1268      C1269   1.408       .  A
C1269      C1270   1.401       .  A
C1269      F1276   1.357       .  S
C1270      C1271   1.403       .  A
C1270      F1275   1.358       .  S
C1271      C1272   1.409       .  A
C1272      F1273   1.358       .  S
C1277      C1278   1.404       .  A
C1277      C1282   1.393       .  A
C1277      F1284   1.358       .  S
C1278      C1279   1.404       .  A
C1279      C1280   1.400       .  A
C1279      F1286   1.358       .  S
C1280      C1281   1.409       .  A
C1280      F1285   1.358       .  S
C1281      C1282   1.408       .  A
C1282      F1283   1.359       .  S
C1287      C1288   1.408       .  A
C1287      C1292   1.395       .  A
C1287      F1294   1.359       .  S
C1288      C1289   1.410       .  A
C1289      C1290   1.410       .  A
C1289      F1296   1.357       .  S
C1290      C1291   1.410       .  A
C1290      F1295   1.358       .  S
C1291      C1292   1.406       .  A
C1292      F1293   1.358       .  S
C1297      C1298   1.403       .  A
C1297      C1302   1.402       .  A
C1297      F1304   1.358       .  S
C1298      C1299   1.408       .  A
C1299      C1300   1.405       .  A
C1299      F1306   1.358       .  S
C1300      C1301   1.404       .  A
C1300      F1305   1.358       .  S
C1301      C1302   1.408       .  A
C1302      F1303   1.358       .  S
C1307      C1308   1.403       .  A
C1307      C1312   1.404       .  A
C1307      F1314   1.357       .  S
C1308      C1309   1.407       .  A
C1309      C1310   1.401       .  A
C1309      F1316   1.357       .  S
C1310      C1311   1.403       .  A
C1310      F1315   1.358       .  S
C1311      C1312   1.408       .  A
C1312      F1313   1.358       .  S
C1317      C1318   1.406       .  A
C1317      C1322   1.396       .  A
C1317      F1324   1.358       .  S
C1318      C1319   1.408       .  A
C1319      C1320   1.404       .  A
C1319      F1326   1.358       .  S
C1320      C1321   1.407       .  A
C1320      F1325   1.358       .  S
C1321      C1322   1.405       .  A
C1322      F1323   1.357       .  S
C1327      C1328   1.403       .  A
C1327      C1332   1.389       .  A
C1327      F1334   1.358       .  S
C1328      C1329   1.407       .  A
C1329      C1330   1.403       .  A
C1329      F1336   1.358       .  S
C1330      C1331   1.407       .  A
C1330      F1335   1.358       .  S
C1331      C1332   1.403       .  A
C1332      F1333   1.357       .  S
C1337      C1338   1.408       .  A
C1337      C1342   1.408       .  A
C1337      F1344   1.358       .  S
C1338      C1339   1.408       .  A
C1339      C1340   1.393       .  A
C1339      F1346   1.359       .  S
C1340      C1341   1.406       .  A
C1340      F1345   1.359       .  S
C1341      C1342   1.412       .  A
C1342      F1343   1.358       .  S
C1347      C1348   1.407       .  A
C1347      C1352   1.403       .  A
C1347      F1354   1.358       .  S
C1348      C1349   1.405       .  A
C1349      C1350   1.392       .  A
C1349      F1356   1.359       .  S
C1350      C1351   1.404       .  A
C1350      F1355   1.357       .  S
C1351      C1352   1.408       .  A
C1352      F1353   1.358       .  S
C1357      C1358   1.408       .  A
C1357      C1362   1.396       .  A
C1357      F1364   1.358       .  S
C1358      C1359   1.410       .  A
C1359      C1360   1.408       .  A
C1359      F1366   1.357       .  S
C1360      C1361   1.408       .  A
C1360      F1365   1.357       .  S
C1361      C1362   1.407       .  A
C1362      F1363   1.359       .  S
C1367      C1368   1.405       .  A
C1367      C1372   1.399       .  A
C1367      F1374   1.358       .  S
C1368      C1369   1.406       .  A
C1369      C1370   1.395       .  A
C1369      F1376   1.358       .  S
C1370      C1371   1.404       .  A
C1370      F1375   1.358       .  S
C1371      C1372   1.407       .  A
C1372      F1373   1.358       .  S
C1377      C1378   1.408       .  A
C1377      C1382   1.402       .  A
C1377      F1384   1.358       .  S
C1378      C1379   1.407       .  A
C1379      C1380   1.395       .  A
C1379      F1386   1.358       .  S
C1380      C1381   1.405       .  A
C1380      F1385   1.358       .  S
C1381      C1382   1.406       .  A
C1382      F1383   1.358       .  S
C1387      C1388   1.404       .  A
C1387      C1392   1.404       .  A
C1387      F1394   1.358       .  S
C1388      C1389   1.408       .  A
C1389      C1390   1.403       .  A
C1389      F1396   1.358       .  S
C1390      C1391   1.403       .  A
C1390      F1395   1.358       .  S
C1391      C1392   1.408       .  A
C1392      F1393   1.358       .  S
C1397      C1398   1.408       .  A
C1397      C1402   1.404       .  A
C1397      F1404   1.358       .  S
C1398      C1399   1.403       .  A
C1399      C1400   1.401       .  A
C1399      F1406   1.358       .  S
C1400      C1401   1.407       .  A
C1400      F1405   1.358       .  S
C1401      C1402   1.404       .  A
C1402      F1403   1.358       .  S
C1407      C1408   1.410       .  A
C1407      C1412   1.407   1_655  A
C1407      F1414   1.357       .  S
C1408      C1409   1.409       .  A
C1409      C1410   1.395   1_655  A
C1409      F1416   1.359       .  S
C1410      C1411   1.411       .  A
C1410      F1415   1.359       .  S
C1411      C1412   1.411       .  A
C1412      F1413   1.357       .  S
C1417      C1418   1.407       .  A
C1417      C1422   1.391       .  A
C1417      F1424   1.359       .  S
C1418      C1419   1.406       .  A
C1419      C1420   1.403       .  A
C1419      F1426   1.357       .  S
C1420      C1421   1.410       .  A
C1420      F1425   1.357       .  S
C1421      C1422   1.408       .  A
C1422      F1423   1.359       .  S
C1427      C1428   1.402       .  A
C1427      C1432   1.400       .  A
C1427      F1434   1.358       .  S
C1428      C1429   1.409       .  A
C1429      C1430   1.406       .  A
C1429      F1436   1.358       .  S
C1430      C1431   1.404       .  A
C1430      F1435   1.358       .  S
C1431      C1432   1.408       .  A
C1432      F1433   1.358       .  S
C1437      C1438   1.407       .  A
C1437      C1442   1.402       .  A
C1437      F1444   1.358       .  S
C1438      C1439   1.404       .  A
C1439      C1440   1.404       .  A
C1439      F1446   1.358       .  S
C1440      C1441   1.408       .  A
C1440      F1445   1.358       .  S
C1441      C1442   1.403       .  A
C1442      F1443   1.358       .  S
C1447      C1448   1.409       .  A
C1447      C1452   1.405   1_655  A
C1447      F1454   1.357       .  S
C1448      C1449   1.409       .  A
C1449      C1450   1.393   1_655  A
C1449      F1456   1.359       .  S
C1450      C1451   1.405       .  A
C1450      F1455   1.359       .  S
C1451      C1452   1.408       .  A
C1452      F1453   1.358       .  S
C1457      C1458   1.405       .  A
C1457      C1462   1.395       .  A
C1457      F1464   1.358       .  S
C1458      C1459   1.406       .  A
C1459      C1460   1.397       .  A
C1459      F1466   1.358       .  S
C1460      C1461   1.406       .  A
C1460      F1465   1.358       .  S
C1461      C1462   1.405       .  A
C1462      F1463   1.357       .  S
C1467      C1468   1.409       .  A
C1467      C1472   1.403       .  A
C1467      F1474   1.358       .  S
C1468      C1469   1.405       .  A
C1469      C1470   1.392       .  A
C1469      F1476   1.358       .  S
C1470      C1471   1.403       .  A
C1470      F1475   1.356       .  S
C1471      C1472   1.405       .  A
C1472      F1473   1.358       .  S
C1477      C1478   1.408       .  A
C1477      C1482   1.402       .  A
C1477      F1484   1.357       .  S
C1478      C1479   1.403       .  A
C1479      C1480   1.405       .  A
C1479      F1486   1.357       .  S
C1480      C1481   1.409       .  A
C1480      F1485   1.358       .  S
C1481      C1482   1.403       .  A
C1482      F1483   1.358       .  S
C1487      C1488   1.403       .  A
C1487      C1492   1.403       .  A
C1487      F1494   1.358       .  S
C1488      C1489   1.408       .  A
C1489      C1490   1.404       .  A
C1489      F1496   1.358       .  S
C1490      C1491   1.404       .  A
C1490      F1495   1.358       .  S
C1491      C1492   1.408       .  A
C1492      F1493   1.358       .  S
C1497      C1498   1.406       .  A
C1497      C1502   1.394       .  A
C1497      F1504   1.359       .  S
C1498      C1499   1.410       .  A
C1499      C1500   1.412       .  A
C1499      F1506   1.357       .  S
C1500      C1501   1.410       .  A
C1500      F1505   1.357       .  S
C1501      C1502   1.407       .  A
C1502      F1503   1.358       .  S
C1507      C1508   1.406       .  A
C1507      C1512   1.392       .  A
C1507      F1514   1.359       .  S
C1508      C1509   1.410       .  A
C1509      C1510   1.409       .  A
C1509      F1516   1.357       .  S
C1510      C1511   1.411       .  A
C1510      F1515   1.357       .  S
C1511      C1512   1.411       .  A
C1512      F1513   1.359       .  S
C1517      C1518   1.405       .  A
C1517      C1522   1.388       .  A
C1517      F1524   1.359       .  S
C1518      C1519   1.409       .  A
C1519      C1520   1.408       .  A
C1519      F1526   1.357       .  S
C1520      C1521   1.410       .  A
C1520      F1525   1.357       .  S
C1521      C1522   1.408       .  A
C1522      F1523   1.359       .  S
C1527      C1528   1.409       .  A
C1527      C1532   1.396       .  A
C1527      F1534   1.358       .  S
C1528      C1529   1.412       .  A
C1529      C1530   1.404       .  A
C1529      F1536   1.358       .  S
C1530      C1531   1.405       .  A
C1530      F1535   1.358       .  S
C1531      C1532   1.405       .  A
C1532      F1533   1.358       .  S
C1537      C1538   1.411       .  A
C1537      C1542   1.409   1_565  A
C1537      F1544   1.357       .  S
C1538      C1539   1.409       .  A
C1539      C1540   1.392   1_565  A
C1539      F1546   1.359       .  S
C1540      C1541   1.410       .  A
C1540      F1545   1.359       .  S
C1541      C1542   1.411       .  A
C1542      F1543   1.357       .  S
C1547      C1548   1.402       .  A
C1547      C1552   1.401       .  A
C1547      F1554   1.358       .  S
C1548      C1549   1.408       .  A
C1549      C1550   1.404       .  A
C1549      F1556   1.358       .  S
C1550      C1551   1.404       .  A
C1550      F1555   1.358       .  S
C1551      C1552   1.408       .  A
C1552      F1553   1.358       .  S
C1557      C1558   1.404       .  A
C1557      C1562   1.404       .  A
C1557      F1564   1.358       .  S
C1558      C1559   1.407       .  A
C1559      C1560   1.400       .  A
C1559      F1566   1.358       .  S
C1560      C1561   1.403       .  A
C1560      F1565   1.358       .  S
C1561      C1562   1.407       .  A
C1562      F1563   1.358       .  S
C1567      C1568   1.410       .  A
C1567      C1572   1.405   1_655  A
C1567      F1574   1.357       .  S
C1568      C1569   1.409       .  A
C1569      C1570   1.393   1_655  A
C1569      F1576   1.359       .  S
C1570      C1571   1.409       .  A
C1570      F1575   1.359       .  S
C1571      C1572   1.408       .  A
C1572      F1573   1.357       .  S
C1577      C1578   1.411       .  A
C1577      C1582   1.409   1_545  A
C1577      F1584   1.357       .  S
C1578      C1579   1.408       .  A
C1579      C1580   1.392   1_545  A
C1579      F1586   1.359       .  S
C1580      C1581   1.407       .  A
C1580      F1585   1.359       .  S
C1581      C1582   1.410       .  A
C1582      F1583   1.357       .  S
C1587      C1588   1.404       .  A
C1587      C1592   1.392       .  A
C1587      F1594   1.359       .  S
C1588      C1589   1.407       .  A
C1589      C1590   1.401       .  A
C1589      F1596   1.358       .  S
C1590      C1591   1.406       .  A
C1590      F1595   1.358       .  S
C1591      C1592   1.406       .  A
C1592      F1593   1.359       .  S
C1597      C1598   1.404       .  A
C1597      C1602   1.403       .  A
C1597      F1604   1.358       .  S
C1598      C1599   1.410       .  A
C1599      C1600   1.405       .  A
C1599      F1606   1.358       .  S
C1600      C1601   1.404       .  A
C1600      F1605   1.358       .  S
C1601      C1602   1.408       .  A
C1602      F1603   1.358       .  S
C1607      C1608   1.407       .  A
C1607      C1612   1.397       .  A
C1607      F1614   1.358       .  S
C1608      C1609   1.410       .  A
C1609      C1610   1.410       .  A
C1609      F1616   1.357       .  S
C1610      C1611   1.410       .  A
C1610      F1615   1.357       .  S
C1611      C1612   1.409       .  A
C1612      F1613   1.358       .  S
C1617      C1618   1.407       .  A
C1617      C1622   1.402       .  A
C1617      F1624   1.358       .  S
C1618      C1619   1.405       .  A
C1619      C1620   1.389       .  A
C1619      F1626   1.358       .  S
C1620      C1621   1.402       .  A
C1620      F1625   1.359       .  S
C1621      C1622   1.405       .  A
C1622      F1623   1.358       .  S
C1627      C1628   1.403       .  A
C1627      C1632   1.403       .  A
C1627      F1634   1.358       .  S
C1628      C1629   1.408       .  A
C1629      C1630   1.402       .  A
C1629      F1636   1.358       .  S
C1630      C1631   1.403       .  A
C1630      F1635   1.358       .  S
C1631      C1632   1.408       .  A
C1632      F1633   1.358       .  S
C1637      C1638   1.408       .  A
C1637      C1642   1.393       .  A
C1637      F1644   1.359       .  S
C1638      C1639   1.408       .  A
C1639      C1640   1.402       .  A
C1639      F1646   1.357       .  S
C1640      C1641   1.408       .  A
C1640      F1645   1.358       .  S
C1641      C1642   1.408       .  A
C1642      F1643   1.359       .  S
C1647      C1648   1.407       .  A
C1647      C1652   1.396   1_655  A
C1647      F1654   1.358       .  S
C1648      C1649   1.409       .  A
C1649      C1650   1.406   1_655  A
C1649      F1656   1.358       .  S
C1650      C1651   1.408       .  A
C1650      F1655   1.357       .  S
C1651      C1652   1.407       .  A
C1652      F1653   1.359       .  S
C1657      C1658   1.404       .  A
C1657      C1662   1.404       .  A
C1657      F1664   1.358       .  S
C1658      C1659   1.404       .  A
C1659      C1660   1.393       .  A
C1659      F1666   1.358       .  S
C1660      C1661   1.406       .  A
C1660      F1665   1.358       .  S
C1661      C1662   1.410       .  A
C1662      F1663   1.358       .  S
C1667      C1668   1.406       .  A
C1667      C1672   1.400       .  A
C1667      F1674   1.358       .  S
C1668      C1669   1.406       .  A
C1669      C1670   1.397       .  A
C1669      F1676   1.358       .  S
C1670      C1671   1.407       .  A
C1670      F1675   1.359       .  S
C1671      C1672   1.409       .  A
C1672      F1673   1.358       .  S
C1677      C1678   1.403       .  A
C1677      C1682   1.401       .  A
C1677      F1684   1.358       .  S
C1678      C1679   1.408       .  A
C1679      C1680   1.406       .  A
C1679      F1686   1.358       .  S
C1680      C1681   1.405       .  A
C1680      F1685   1.357       .  S
C1681      C1682   1.408       .  A
C1682      F1683   1.358       .  S
C1687      C1688   1.402       .  A
C1687      C1692   1.401       .  A
C1687      F1694   1.358       .  S
C1688      C1689   1.409       .  A
C1689      C1690   1.402       .  A
C1689      F1696   1.358       .  S
C1690      C1691   1.403       .  A
C1690      F1695   1.358       .  S
C1691      C1692   1.409       .  A
C1692      F1693   1.358       .  S
C1697      C1698   1.408       .  A
C1697      C1702   1.407       .  A
C1697      F1704   1.358       .  S
C1698      C1699   1.405       .  A
C1699      C1700   1.393       .  A
C1699      F1706   1.359       .  S
C1700      C1701   1.408       .  A
C1700      F1705   1.359       .  S
C1701      C1702   1.410       .  A
C1702      F1703   1.357       .  S
C1707      C1708   1.410       .  A
C1707      C1712   1.403       .  A
C1707      F1714   1.358       .  S
C1708      C1709   1.405       .  A
C1709      C1710   1.392       .  A
C1709      F1716   1.358       .  S
C1710      C1711   1.405       .  A
C1710      F1715   1.358       .  S
C1711      C1712   1.405       .  A
C1712      F1713   1.358       .  S
C1717      C1718   1.408       .  A
C1717      C1722   1.395       .  A
C1717      F1724   1.359       .  S
C1718      C1719   1.410       .  A
C1719      C1720   1.409       .  A
C1719      F1726   1.358       .  S
C1720      C1721   1.410       .  A
C1720      F1725   1.357       .  S
C1721      C1722   1.407       .  A
C1722      F1723   1.358       .  S
C1727      C1728   1.406       .  A
C1727      C1732   1.393       .  A
C1727      F1734   1.358       .  S
C1728      C1729   1.407       .  A
C1729      C1730   1.400       .  A
C1729      F1736   1.358       .  S
C1730      C1731   1.408       .  A
C1730      F1735   1.358       .  S
C1731      C1732   1.407       .  A
C1732      F1733   1.358       .  S
C1737      C1738   1.406       .  A
C1737      C1742   1.394       .  A
C1737      F1744   1.359       .  S
C1738      C1739   1.409       .  A
C1739      C1740   1.407       .  A
C1739      F1746   1.357       .  S
C1740      C1741   1.407       .  A
C1740      F1745   1.357       .  S
C1741      C1742   1.406       .  A
C1742      F1743   1.359       .  S
C1747      C1748   1.407       .  A
C1747      C1752   1.392   1_556  A
C1747      F1754   1.359       .  S
C1748      C1749   1.409       .  A
C1749      C1750   1.407   1_556  A
C1749      F1756   1.358       .  S
C1750      C1751   1.409       .  A
C1750      F1755   1.358       .  S
C1751      C1752   1.406       .  A
C1752      F1753   1.359       .  S
C1757      C1758   1.404       .  A
C1757      C1762   1.404       .  A
C1757      F1764   1.358       .  S
C1758      C1759   1.408       .  A
C1759      C1760   1.402       .  A
C1759      F1766   1.358       .  S
C1760      C1761   1.403       .  A
C1760      F1765   1.358       .  S
C1761      C1762   1.408       .  A
C1762      F1763   1.358       .  S
C1767      C1768   1.403       .  A
C1767      C1772   1.402       .  A
C1767      F1774   1.358       .  S
C1768      C1769   1.406       .  A
C1769      C1770   1.401       .  A
C1769      F1776   1.358       .  S
C1770      C1771   1.403       .  A
C1770      F1775   1.358       .  S
C1771      C1772   1.408       .  A
C1772      F1773   1.358       .  S
C1777      C1778   1.407       .  A
C1777      C1782   1.394   1_556  A
C1777      F1784   1.359       .  S
C1778      C1779   1.410       .  A
C1779      C1780   1.406   1_556  A
C1779      F1786   1.357       .  S
C1780      C1781   1.407       .  A
C1780      F1785   1.357       .  S
C1781      C1782   1.407       .  A
C1782      F1783   1.359       .  S
C1787      C1788   1.403       .  A
C1787      C1792   1.404       .  A
C1787      F1794   1.358       .  S
C1788      C1789   1.408       .  A
C1789      C1790   1.402       .  A
C1789      F1796   1.358       .  S
C1790      C1791   1.403       .  A
C1790      F1795   1.358       .  S
C1791      C1792   1.409       .  A
C1792      F1793   1.358       .  S
C1797      C1798   1.409       .  A
C1797      C1802   1.403       .  A
C1797      F1804   1.358       .  S
C1798      C1799   1.403       .  A
C1799      C1800   1.402       .  A
C1799      F1806   1.358       .  S
C1800      C1801   1.407       .  A
C1800      F1805   1.358       .  S
C1801      C1802   1.403       .  A
C1802      F1803   1.358       .  S
C1807      C1808   1.405       .  A
C1807      C1812   1.396       .  A
C1807      F1814   1.358       .  S
C1808      C1809   1.407       .  A
C1809      C1810   1.401       .  A
C1809      F1816   1.358       .  S
C1810      C1811   1.407       .  A
C1810      F1815   1.358       .  S
C1811      C1812   1.407       .  A
C1812      F1813   1.358       .  S
C1817      C1818   1.409       .  A
C1817      C1822   1.404       .  A
C1817      F1824   1.358       .  S
C1818      C1819   1.403       .  A
C1819      C1820   1.403       .  A
C1819      F1826   1.358       .  S
C1820      C1821   1.407       .  A
C1820      F1825   1.358       .  S
C1821      C1822   1.404       .  A
C1822      F1823   1.358       .  S
C1827      C1828   1.408       .  A
C1827      C1832   1.393       .  A
C1827      F1834   1.359       .  S
C1828      C1829   1.408       .  A
C1829      C1830   1.401       .  A
C1829      F1836   1.357       .  S
C1830      C1831   1.407       .  A
C1830      F1835   1.357       .  S
C1831      C1832   1.407       .  A
C1832      F1833   1.359       .  S
C1837      C1838   1.408       .  A
C1837      C1842   1.403       .  A
C1837      F1844   1.358       .  S
C1838      C1839   1.404       .  A
C1839      C1840   1.403       .  A
C1839      F1846   1.358       .  S
C1840      C1841   1.408       .  A
C1840      F1845   1.358       .  S
C1841      C1842   1.403       .  A
C1842      F1843   1.358       .  S
C1847      C1848   1.405       .  A
C1847      C1852   1.390       .  A
C1847      F1854   1.359       .  S
C1848      C1849   1.407       .  A
C1849      C1850   1.402       .  A
C1849      F1856   1.357       .  S
C1850      C1851   1.405       .  A
C1850      F1855   1.358       .  S
C1851      C1852   1.404       .  A
C1852      F1853   1.358       .  S
C1857      C1858   1.406       .  A
C1857      C1862   1.394       .  A
C1857      F1864   1.358       .  S
C1858      C1859   1.410       .  A
C1859      C1860   1.407       .  A
C1859      F1866   1.358       .  S
C1860      C1861   1.408       .  A
C1860      F1865   1.358       .  S
C1861      C1862   1.406       .  A
C1862      F1863   1.358       .  S
C1867      C1868   1.410       .  A
C1867      C1872   1.412       .  A
C1867      F1874   1.357       .  S
C1868      C1869   1.410       .  A
C1869      C1870   1.392       .  A
C1869      F1876   1.359       .  S
C1870      C1871   1.411       .  A
C1870      F1875   1.359       .  S
C1871      C1872   1.414       .  A
C1872      F1873   1.357       .  S
C1877      C1878   1.407       .  A
C1877      C1882   1.395       .  A
C1877      F1884   1.359       .  S
C1878      C1879   1.410       .  A
C1879      C1880   1.408       .  A
C1879      F1886   1.358       .  S
C1880      C1881   1.409       .  A
C1880      F1885   1.357       .  S
C1881      C1882   1.407       .  A
C1882      F1883   1.359       .  S
C1887      C1888   1.409       .  A
C1887      C1892   1.401       .  A
C1887      F1894   1.358       .  S
C1888      C1889   1.408       .  A
C1889      C1890   1.394       .  A
C1889      F1896   1.357       .  S
C1890      C1891   1.404       .  A
C1890      F1895   1.358       .  S
C1891      C1892   1.406       .  A
C1892      F1893   1.358       .  S
C1897      C1898   1.409       .  A
C1897      C1902   1.408       .  A
C1897      F1904   1.358       .  S
C1898      C1899   1.409       .  A
C1899      C1900   1.397       .  A
C1899      F1906   1.358       .  S
C1900      C1901   1.405       .  A
C1900      F1905   1.358       .  S
C1901      C1902   1.410       .  A
C1902      F1903   1.358       .  S
C1907      C1908   1.407       .  A
C1907      C1912   1.403       .  A
C1907      F1914   1.358       .  S
C1908      C1909   1.403       .  A
C1909      C1910   1.393       .  A
C1909      F1916   1.357       .  S
C1910      C1911   1.403       .  A
C1910      F1915   1.358       .  S
C1911      C1912   1.406       .  A
C1912      F1913   1.358       .  S
C1917      C1918   1.405       .  A
C1917      C1922   1.395       .  A
C1917      F1924   1.358       .  S
C1918      C1919   1.406       .  A
C1919      C1920   1.399       .  A
C1919      F1926   1.358       .  S
C1920      C1921   1.408       .  A
C1920      F1925   1.358       .  S
C1921      C1922   1.407       .  A
C1922      F1923   1.358       .  S
C1927      C1928   1.409       .  A
C1927      C1932   1.396   1_455  A
C1927      F1934   1.359       .  S
C1928      C1929   1.410       .  A
C1929      C1930   1.406   1_455  A
C1929      F1936   1.357       .  S
C1930      C1931   1.409       .  A
C1930      F1935   1.357       .  S
C1931      C1932   1.409       .  A
C1932      F1933   1.359       .  S
C1937      C1938   1.408       .  A
C1937      C1942   1.406       .  A
C1937      F1944   1.358       .  S
C1938      C1939   1.405       .  A
C1939      C1940   1.405       .  A
C1939      F1946   1.358       .  S
C1940      C1941   1.407       .  A
C1940      F1945   1.358       .  S
C1941      C1942   1.405       .  A
C1942      F1943   1.358       .  S
C1947      C1948   1.403       .  A
C1947      C1952   1.405       .  A
C1947      F1954   1.357       .  S
C1948      C1949   1.410       .  A
C1949      C1950   1.402       .  A
C1949      F1956   1.358       .  S
C1950      C1951   1.403       .  A
C1950      F1955   1.358       .  S
C1951      C1952   1.410       .  A
C1952      F1953   1.358       .  S
C1957      C1958   1.409       .  A
C1957      C1962   1.408   1_554  A
C1957      F1964   1.357       .  S
C1958      C1959   1.408       .  A
C1959      C1960   1.393   1_554  A
C1959      F1966   1.359       .  S
C1960      C1961   1.405       .  A
C1960      F1965   1.358       .  S
C1961      C1962   1.410       .  A
C1962      F1963   1.357       .  S
C1967      C1968   1.411       .  A
C1967      C1972   1.406   1_455  A
C1967      F1974   1.358       .  S
C1968      C1969   1.407       .  A
C1969      C1970   1.392   1_455  A
C1969      F1976   1.359       .  S
C1970      C1971   1.408       .  A
C1970      F1975   1.359       .  S
C1971      C1972   1.408       .  A
C1972      F1973   1.358       .  S
C1977      C1978   1.404       .  A
C1977      C1982   1.403       .  A
C1977      F1984   1.358       .  S
C1978      C1979   1.409       .  A
C1979      C1980   1.401       .  A
C1979      F1986   1.358       .  S
C1980      C1981   1.402       .  A
C1980      F1985   1.358       .  S
C1981      C1982   1.408       .  A
C1982      F1983   1.358       .  S
C1987      C1988   1.403       .  A
C1987      C1992   1.402       .  A
C1987      F1994   1.358       .  S
C1988      C1989   1.408       .  A
C1989      C1990   1.404       .  A
C1989      F1996   1.358       .  S
C1990      C1991   1.404       .  A
C1990      F1995   1.358       .  S
C1991      C1992   1.408       .  A
C1992      F1993   1.357       .  S
C1997      C1998   1.407       .  A
C1997      C2002   1.394       .  A
C1997      F2004   1.359       .  S
C1998      C1999   1.407       .  A
C1999      C2000   1.405       .  A
C1999      F2006   1.358       .  S
C2000      C2001   1.411       .  A
C2000      F2005   1.358       .  S
C2001      C2002   1.408       .  A
C2002      F2003   1.358       .  S
C2007      C2008   1.407       .  A
C2007      C2012   1.395   1_556  A
C2007      F2014   1.358       .  S
C2008      C2009   1.411       .  A
C2009      C2010   1.409   1_556  A
C2009      F2016   1.358       .  S
C2010      C2011   1.409       .  A
C2010      F2015   1.357       .  S
C2011      C2012   1.408       .  A
C2012      F2013   1.359       .  S
C2017      C2018   1.408       .  A
C2017      C2022   1.405       .  A
C2017      F2024   1.357       .  S
C2018      C2019   1.406       .  A
C2019      C2020   1.392       .  A
C2019      F2026   1.358       .  S
C2020      C2021   1.407       .  A
C2020      F2025   1.359       .  S
C2021      C2022   1.409       .  A
C2022      F2023   1.357       .  S
C2027      C2028   1.409       .  A
C2027      C2032   1.400       .  A
C2027      F2034   1.358       .  S
C2028      C2029   1.408       .  A
C2029      C2030   1.394       .  A
C2029      F2036   1.358       .  S
C2030      C2031   1.404       .  A
C2030      F2035   1.359       .  S
C2031      C2032   1.403       .  A
C2032      F2033   1.358       .  S
C2037      C2038   1.402       .  A
C2037      C2042   1.401       .  A
C2037      F2044   1.358       .  S
C2038      C2039   1.408       .  A
C2039      C2040   1.405       .  A
C2039      F2046   1.358       .  S
C2040      C2041   1.404       .  A
C2040      F2045   1.357       .  S
C2041      C2042   1.409       .  A
C2042      F2043   1.358       .  S
C2047      C2048   1.404       .  A
C2047      C2052   1.404       .  A
C2047      F2054   1.358       .  S
C2048      C2049   1.407       .  A
C2049      C2050   1.402       .  A
C2049      F2056   1.358       .  S
C2050      C2051   1.403       .  A
C2050      F2055   1.358       .  S
C2051      C2052   1.408       .  A
C2052      F2053   1.358       .  S
C2057      C2058   1.412       .  A
C2057      C2062   1.409       .  A
C2057      F2064   1.357       .  S
C2058      C2059   1.410       .  A
C2059      C2060   1.391       .  A
C2059      F2066   1.359       .  S
C2060      C2061   1.409       .  A
C2060      F2065   1.359       .  S
C2061      C2062   1.411       .  A
C2062      F2063   1.357       .  S
C2067      C2068   1.409       .  A
C2067      C2072   1.395       .  A
C2067      F2074   1.359       .  S
C2068      C2069   1.410       .  A
C2069      C2070   1.409       .  A
C2069      F2076   1.357       .  S
C2070      C2071   1.413       .  A
C2070      F2075   1.357       .  S
C2071      C2072   1.413       .  A
C2072      F2073   1.359       .  S
C2077      C2078   1.412       .  A
C2077      C2082   1.408       .  A
C2077      F2084   1.358       .  S
C2078      C2079   1.407       .  A
C2079      C2080   1.393       .  A
C2079      F2086   1.358       .  S
C2080      C2081   1.408       .  A
C2080      F2085   1.359       .  S
C2081      C2082   1.409       .  A
C2082      F2083   1.358       .  S
C2087      C2088   1.407       .  A
C2087      C2092   1.399       .  A
C2087      F2094   1.359       .  S
C2088      C2089   1.407       .  A
C2089      C2090   1.402       .  A
C2089      F2096   1.358       .  S
C2090      C2091   1.409       .  A
C2090      F2095   1.358       .  S
C2091      C2092   1.410       .  A
C2092      F2093   1.358       .  S
C2097      C2098   1.413       .  A
C2097      C2102   1.390       .  A
C2097      F2104   1.359       .  S
C2098      C2099   1.412       .  A
C2099      C2100   1.408       .  A
C2099      F2106   1.357       .  S
C2100      C2101   1.411       .  A
C2100      F2105   1.357       .  S
C2101      C2102   1.410       .  A
C2102      F2103   1.359       .  S
C2107      C2108   1.407       .  A
C2107      C2112   1.401       .  A
C2107      F2114   1.358       .  S
C2108      C2109   1.406       .  A
C2109      C2110   1.394       .  A
C2109      F2116   1.359       .  S
C2110      C2111   1.408       .  A
C2110      F2115   1.358       .  S
C2111      C2112   1.408       .  A
C2112      F2113   1.357       .  S
C2117      C2118   1.405       .  A
C2117      C2122   1.391       .  A
C2117      F2124   1.359       .  S
C2118      C2119   1.406       .  A
C2119      C2120   1.398       .  A
C2119      F2126   1.358       .  S
C2120      C2121   1.405       .  A
C2120      F2125   1.358       .  S
C2121      C2122   1.404       .  A
C2122      F2123   1.359       .  S
C2127      C2128   1.411       .  A
C2127      C2132   1.409   1_556  A
C2127      F2134   1.357       .  S
C2128      C2129   1.412       .  A
C2129      C2130   1.395   1_556  A
C2129      F2136   1.359       .  S
C2130      C2131   1.405       .  A
C2130      F2135   1.359       .  S
C2131      C2132   1.409       .  A
C2132      F2133   1.357       .  S
C2137      C2138   1.408       .  A
C2137      C2142   1.404       .  A
C2137      F2144   1.358       .  S
C2138      C2139   1.403       .  A
C2139      C2140   1.401       .  A
C2139      F2146   1.358       .  S
C2140      C2141   1.408       .  A
C2140      F2145   1.358       .  S
C2141      C2142   1.404       .  A
C2142      F2143   1.357       .  S
C2147      C2148   1.409       .  A
C2147      C2152   1.403       .  A
C2147      F2154   1.358       .  S
C2148      C2149   1.404       .  A
C2149      C2150   1.405       .  A
C2149      F2156   1.358       .  S
C2150      C2151   1.409       .  A
C2150      F2155   1.358       .  S
C2151      C2152   1.403       .  A
C2152      F2153   1.358       .  S
C2157      C2158   1.410       .  A
C2157      C2162   1.393   1_556  A
C2157      F2164   1.359       .  S
C2158      C2159   1.412       .  A
C2159      C2160   1.410   1_556  A
C2159      F2166   1.357       .  S
C2160      C2161   1.410       .  A
C2160      F2165   1.357       .  S
C2161      C2162   1.409       .  A
C2162      F2163   1.359       .  S
C2167      C2168   1.410       .  A
C2167      C2172   1.409   1_565  A
C2167      F2174   1.357       .  S
C2168      C2169   1.409       .  A
C2169      C2170   1.397   1_565  A
C2169      F2176   1.359       .  S
C2170      C2171   1.410       .  A
C2170      F2175   1.359       .  S
C2171      C2172   1.411       .  A
C2172      F2173   1.357       .  S
C2177      C2178   1.406       .  A
C2177      C2182   1.395       .  A
C2177      F2184   1.359       .  S
C2178      C2179   1.407       .  A
C2179      C2180   1.402       .  A
C2179      F2186   1.358       .  S
C2180      C2181   1.409       .  A
C2180      F2185   1.358       .  S
C2181      C2182   1.408       .  A
C2182      F2183   1.359       .  S
C2187      C2188   1.410       .  A
C2187      C2192   1.404       .  A
C2187      F2194   1.358       .  S
C2188      C2189   1.403       .  A
C2189      C2190   1.404       .  A
C2189      F2196   1.358       .  S
C2190      C2191   1.409       .  A
C2190      F2195   1.358       .  S
C2191      C2192   1.404       .  A
C2192      F2193   1.358       .  S
C2197      C2198   1.408       .  A
C2197      C2202   1.402       .  A
C2197      F2204   1.358       .  S
C2198      C2199   1.403       .  A
C2199      C2200   1.403       .  A
C2199      F2206   1.358       .  S
C2200      C2201   1.409       .  A
C2200      F2205   1.358       .  S
C2201      C2202   1.403       .  A
C2202      F2203   1.358       .  S
C2207      C2208   1.408       .  A
C2207      C2212   1.397   1_565  A
C2207      F2214   1.358       .  S
C2208      C2209   1.411       .  A
C2209      C2210   1.410   1_565  A
C2209      F2216   1.357       .  S
C2210      C2211   1.410       .  A
C2210      F2215   1.357       .  S
C2211      C2212   1.408       .  A
C2212      F2213   1.358       .  S
C2217      C2218   1.408       .  A
C2217      C2222   1.403       .  A
C2217      F2224   1.358       .  S
C2218      C2219   1.403       .  A
C2219      C2220   1.404       .  A
C2219      F2226   1.358       .  S
C2220      C2221   1.409       .  A
C2220      F2225   1.358       .  S
C2221      C2222   1.403       .  A
C2222      F2223   1.358       .  S
C2227      C2228   1.408       .  A
C2227      C2232   1.404       .  A
C2227      F2234   1.358       .  S
C2228      C2229   1.403       .  A
C2229      C2230   1.401       .  A
C2229      F2236   1.358       .  S
C2230      C2231   1.407       .  A
C2230      F2235   1.358       .  S
C2231      C2232   1.404       .  A
C2232      F2233   1.358       .  S
C2237      C2238   1.408       .  A
C2237      C2242   1.396       .  A
C2237      F2244   1.358       .  S
C2238      C2239   1.409       .  A
C2239      C2240   1.402       .  A
C2239      F2246   1.358       .  S
C2240      C2241   1.406       .  A
C2240      F2245   1.358       .  S
C2241      C2242   1.405       .  A
C2242      F2243   1.358       .  S
C2247      C2248   1.409       .  A
C2247      C2252   1.403       .  A
C2247      F2254   1.358       .  S
C2248      C2249   1.407       .  A
C2249      C2250   1.395       .  A
C2249      F2256   1.358       .  S
C2250      C2251   1.404       .  A
C2250      F2255   1.357       .  S
C2251      C2252   1.405       .  A
C2252      F2253   1.358       .  S
C2257      C2258   1.408       .  A
C2257      C2262   1.393       .  A
C2257      F2264   1.359       .  S
C2258      C2259   1.410       .  A
C2259      C2260   1.407       .  A
C2259      F2266   1.357       .  S
C2260      C2261   1.408       .  A
C2260      F2265   1.357       .  S
C2261      C2262   1.407       .  A
C2262      F2263   1.359       .  S
C2267      C2268   1.408       .  A
C2267      C2272   1.394       .  A
C2267      F2274   1.358       .  S
C2268      C2269   1.412       .  A
C2269      C2270   1.410       .  A
C2269      F2276   1.357       .  S
C2270      C2271   1.408       .  A
C2270      F2275   1.358       .  S
C2271      C2272   1.406       .  A
C2272      F2273   1.359       .  S
C2277      C2278   1.407       .  A
C2277      C2282   1.392       .  A
C2277      F2284   1.359       .  S
C2278      C2279   1.409       .  A
C2279      C2280   1.408       .  A
C2279      F2286   1.357       .  S
C2280      C2281   1.409       .  A
C2280      F2285   1.357       .  S
C2281      C2282   1.407       .  A
C2282      F2283   1.359       .  S
C2287      C2288   1.407       .  A
C2287      C2292   1.405       .  A
C2287      F2294   1.357       .  S
C2288      C2289   1.406       .  A
C2289      C2290   1.396       .  A
C2289      F2296   1.359       .  S
C2290      C2291   1.408       .  A
C2290      F2295   1.359       .  S
C2291      C2292   1.408       .  A
C2292      F2293   1.357       .  S
C2297      C2298   1.405       .  A
C2297      C2302   1.391       .  A
C2297      F2304   1.358       .  S
C2298      C2299   1.408       .  A
C2299      C2300   1.402       .  A
C2299      F2306   1.358       .  S
C2300      C2301   1.406       .  A
C2300      F2305   1.358       .  S
C2301      C2302   1.405       .  A
C2302      F2303   1.358       .  S
C2307      C2308   1.406       .  A
C2307      C2312   1.387       .  A
C2307      F2314   1.359       .  S
C2308      C2309   1.409       .  A
C2309      C2310   1.407       .  A
C2309      F2316   1.358       .  S
C2310      C2311   1.410       .  A
C2310      F2315   1.358       .  S
C2311      C2312   1.406       .  A
C2312      F2313   1.359       .  S
C2317      C2318   1.411       .  A
C2317      C2322   1.409       .  A
C2317      F2324   1.357       .  S
C2318      C2319   1.410       .  A
C2319      C2320   1.394       .  A
C2319      F2326   1.359       .  S
C2320      C2321   1.408       .  A
C2320      F2325   1.359       .  S
C2321      C2322   1.410       .  A
C2322      F2323   1.357       .  S
C2327      C2328   1.405       .  A
C2327      C2332   1.394       .  A
C2327      F2334   1.357       .  S
C2328      C2329   1.407       .  A
C2329      C2330   1.401       .  A
C2329      F2336   1.358       .  S
C2330      C2331   1.407       .  A
C2330      F2335   1.358       .  S
C2331      C2332   1.405       .  A
C2332      F2333   1.358       .  S
C2337      C2338   1.404       .  A
C2337      C2342   1.393       .  A
C2337      F2344   1.358       .  S
C2338      C2339   1.407       .  A
C2339      C2340   1.406       .  A
C2339      F2346   1.358       .  S
C2340      C2341   1.408       .  A
C2340      F2345   1.358       .  S
C2341      C2342   1.406       .  A
C2342      F2343   1.357       .  S
C2347      C2348   1.408       .  A
C2347      C2352   1.404   1_655  A
C2347      F2354   1.357       .  S
C2348      C2349   1.407       .  A
C2349      C2350   1.392   1_655  A
C2349      F2356   1.359       .  S
C2350      C2351   1.406       .  A
C2350      F2355   1.359       .  S
C2351      C2352   1.408       .  A
C2352      F2353   1.358       .  S
C2357      C2358   1.410       .  A
C2357      C2362   1.395   1_545  A
C2357      F2364   1.358       .  S
C2358      C2359   1.411       .  A
C2359      C2360   1.410   1_545  A
C2359      F2366   1.357       .  S
C2360      C2361   1.410       .  A
C2360      F2365   1.357       .  S
C2361      C2362   1.409       .  A
C2362      F2363   1.359       .  S
C2367      C2368   1.407       .  A
C2367      C2372   1.402       .  A
C2367      F2374   1.358       .  S
C2368      C2369   1.404       .  A
C2369      C2370   1.403       .  A
C2369      F2376   1.358       .  S
C2370      C2371   1.407       .  A
C2370      F2375   1.358       .  S
C2371      C2372   1.403       .  A
C2372      F2373   1.358       .  S
C2377      C2378   1.408       .  A
C2377      C2382   1.403       .  A
C2377      F2384   1.358       .  S
C2378      C2379   1.404       .  A
C2379      C2380   1.405       .  A
C2379      F2386   1.357       .  S
C2380      C2381   1.409       .  A
C2380      F2385   1.358       .  S
C2381      C2382   1.404       .  A
C2382      F2383   1.358       .  S
C2387      C2388   1.408       .  A
C2387      C2392   1.391   1_556  A
C2387      F2394   1.359       .  S
C2388      C2389   1.408       .  A
C2389      C2390   1.407   1_556  A
C2389      F2396   1.357       .  S
C2390      C2391   1.410       .  A
C2390      F2395   1.357       .  S
C2391      C2392   1.408       .  A
C2392      F2393   1.359       .  S
C2397      C2398   1.409       .  A
C2397      C2402   1.410   1_565  A
C2397      F2404   1.357       .  S
C2398      C2399   1.408       .  A
C2399      C2400   1.392   1_565  A
C2399      F2406   1.359       .  S
C2400      C2401   1.409       .  A
C2400      F2405   1.358       .  S
C2401      C2402   1.413       .  A
C2402      F2403   1.357       .  S
C2407      C2408   1.407       .  A
C2407      C2412   1.401       .  A
C2407      F2414   1.358       .  S
C2408      C2409   1.403       .  A
C2409      C2410   1.404       .  A
C2409      F2416   1.358       .  S
C2410      C2411   1.408       .  A
C2410      F2415   1.358       .  S
C2411      C2412   1.403       .  A
C2412      F2413   1.358       .  S
C2417      C2418   1.403       .  A
C2417      C2422   1.403       .  A
C2417      F2424   1.358       .  S
C2418      C2419   1.407       .  A
C2419      C2420   1.402       .  A
C2419      F2426   1.358       .  S
C2420      C2421   1.403       .  A
C2420      F2425   1.358       .  S
C2421      C2422   1.407       .  A
C2422      F2423   1.357       .  S
C2427      C2428   1.407       .  A
C2427      C2432   1.402       .  A
C2427      F2434   1.358       .  S
C2428      C2429   1.406       .  A
C2429      C2430   1.388       .  A
C2429      F2436   1.358       .  S
C2430      C2431   1.403       .  A
C2430      F2435   1.358       .  S
C2431      C2432   1.406       .  A
C2432      F2433   1.358       .  S
C2437      C2438   1.408       .  A
C2437      C2442   1.409   1_556  A
C2437      F2444   1.358       .  S
C2438      C2439   1.409       .  A
C2439      C2440   1.395   1_556  A
C2439      F2446   1.358       .  S
C2440      C2441   1.406       .  A
C2440      F2445   1.359       .  S
C2441      C2442   1.412       .  A
C2442      F2443   1.357       .  S
C2447      C2448   1.410       .  A
C2447      C2452   1.390   1_655  A
C2447      F2454   1.359       .  S
C2448      C2449   1.413       .  A
C2449      C2450   1.408   1_655  A
C2449      F2456   1.357       .  S
C2450      C2451   1.409       .  A
C2450      F2455   1.358       .  S
C2451      C2452   1.407       .  A
C2452      F2453   1.358       .  S
C2457      C2458   1.407       .  A
C2457      C2462   1.406       .  A
C2457      F2464   1.358       .  S
C2458      C2459   1.403       .  A
C2459      C2460   1.390       .  A
C2459      F2466   1.359       .  S
C2460      C2461   1.407       .  A
C2460      F2465   1.358       .  S
C2461      C2462   1.409       .  A
C2462      F2463   1.357       .  S
C2467      C2468   1.406       .  A
C2467      C2472   1.400       .  A
C2467      F2474   1.358       .  S
C2468      C2469   1.407       .  A
C2469      C2470   1.394       .  A
C2469      F2476   1.358       .  S
C2470      C2471   1.407       .  A
C2470      F2475   1.359       .  S
C2471      C2472   1.409       .  A
C2472      F2473   1.357       .  S
C2477      C2478   1.404       .  A
C2477      C2482   1.407       .  A
C2477      F2484   1.357       .  S
C2478      C2479   1.407       .  A
C2479      C2480   1.402       .  A
C2479      F2486   1.357       .  S
C2480      C2481   1.404       .  A
C2480      F2485   1.358       .  S
C2481      C2482   1.409       .  A
C2482      F2483   1.358       .  S
C2487      C2488   1.403       .  A
C2487      C2492   1.402       .  A
C2487      F2494   1.358       .  S
C2488      C2489   1.409       .  A
C2489      C2490   1.403       .  A
C2489      F2496   1.358       .  S
C2490      C2491   1.403       .  A
C2490      F2495   1.358       .  S
C2491      C2492   1.409       .  A
C2492      F2493   1.358       .  S
