geometry optimzed in LAMMPS
_audit_creation_date              2020-11-30 
_audit_creation_method            'lammps2cif' 
_symmetry_space_group_name_H-M    'P1' 
_symmetry_Int_Tables_number       1 
_symmetry_cell_setting            triclinic 
loop_ 
_symmetry_equiv_pos_as_xyz 
  x,y,z 
_cell_length_a                    26.21975969 
_cell_length_b                    54.13997470099352 
_cell_length_c                    38.390662894092465 
_cell_angle_alpha                 89.93101352093291 
_cell_angle_beta                  89.94818281751554 
_cell_angle_gamma                 90.00874764307942 
loop_ 
_atom_site_label 
_atom_site_type_symbol 
_atom_site_fract_x 
_atom_site_fract_y 
_atom_site_fract_z 
_atom_site_charge 
In1        In  0.00021025  0.45496445  0.37161142     1.36900
C2          C  0.07623958  0.42241549  0.37138272     0.77300
O3          O  0.04220815  0.47523331  0.41441639    -0.61100
O4          O  0.96207682  0.47789662  0.41293553    -0.52000
C5          C  0.99332812  0.48453386  0.31556989     0.70000
O6          O  0.03416067  0.48120593  0.33223393    -0.46900
C7          C  0.92714117  0.42065323  0.36958359     0.74700
O8          O  0.06885777  0.43741704  0.34680230    -0.58800
O9          O  0.93162105  0.43581313  0.39428383    -0.48900
O10         O  0.04666122  0.42501089  0.39699109    -0.55200
C11         C  0.00246530  0.48326750  0.42899601     0.84900
O12         O  0.95534922  0.47409180  0.32922984    -0.57100
O13         O  0.95897255  0.42379568  0.34541438    -0.60400
In14       In  0.99249606  0.55990134  0.12113783     1.36900
C15         C  0.06980712  0.59165407  0.11822363     0.77300
O16         O  0.95816317  0.53185380  0.08437676    -0.61100
O17         O  0.03007226  0.54660679  0.07182188    -0.52000
C18         C  0.99280339  0.53292880  0.17985641     0.70000
O19         O  0.03083912  0.53480866  0.16000279    -0.46900
C20         C  0.91558427  0.59187595  0.12514027     0.74700
O21         O  0.06982084  0.57301506  0.13794049    -0.58800
O22         O  0.91715522  0.57478757  0.10288656    -0.48900
O23         O  0.03010519  0.59372181  0.09990365    -0.55200
C24         C  0.99388711  0.53291994  0.06248524     0.84900
O25         O  0.95349423  0.54337227  0.16817221    -0.57100
O26         O  0.95326038  0.59218233  0.14552963    -0.60400
In27       In  0.78953049  0.20835464  0.12447653     1.36900
C28         C  0.76405387  0.22978382  0.18450849     0.77300
O29         O  0.71421922  0.19120451  0.11250254    -0.61100
O30         O  0.77224569  0.16799822  0.13222531    -0.52000
C31         C  0.77421192  0.23282663  0.06522965     0.70000
O32         O  0.75551670  0.23943692  0.09393506    -0.46900
C33         C  0.89088728  0.20436194  0.12681977     0.74700
O34         O  0.77098659  0.24161389  0.15656824    -0.58800
O35         O  0.86639912  0.22117831  0.14204033    -0.48900
O36         O  0.77026976  0.20676609  0.18149838    -0.55200
C37         C  0.72690737  0.16970941  0.12161035     0.84900
O38         O  0.80062777  0.21342361  0.06690090    -0.57100
O39         O  0.86306927  0.18914164  0.11093805    -0.60400
In40       In  0.71124831  0.30448273  0.37519960     1.36900
C41         C  0.73770586  0.28303412  0.43497366     0.77300
O42         O  0.78863027  0.32062990  0.36617621    -0.61100
O43         O  0.73029759  0.34465290  0.38343637    -0.52000
C44         C  0.72221588  0.28206481  0.31364104     0.70000
O45         O  0.73057809  0.27160887  0.34241280    -0.46900
C46         C  0.60985740  0.30679794  0.37804957     0.74700
O47         O  0.74702386  0.27389619  0.40550750    -0.58800
O48         O  0.63690276  0.32476398  0.36816742    -0.48900
O49         O  0.71546798  0.30369498  0.43376248    -0.55200
C50         C  0.77637894  0.34229766  0.37466613     0.84900
O51         O  0.70782492  0.30418710  0.31649607    -0.57100
O52         O  0.63509380  0.28801104  0.38659362    -0.60400
In53       In  0.21253951  0.20868982  0.12315294     1.36900
C54         C  0.22466188  0.23145565  0.06218190     0.77300
O55         O  0.29196874  0.19400672  0.12361836    -0.61100
O56         O  0.23191830  0.16805039  0.12271753    -0.52000
C57         C  0.23545508  0.22930091  0.18353804     0.70000
O58         O  0.24534185  0.23930632  0.15463045    -0.46900
C59         C  0.11152978  0.20605291  0.12801647     0.74700
O60         O  0.23414221  0.24146597  0.09099627    -0.58800
O61         O  0.13858873  0.18788129  0.11906241    -0.48900
O62         O  0.20909074  0.20952776  0.06460205    -0.55200
C63         C  0.27943882  0.17159099  0.12358031     0.84900
O64         O  0.21461439  0.20834445  0.18127933    -0.57100
O65         O  0.13637386  0.22537027  0.13449969    -0.60400
In66       In  0.28795438  0.30522246  0.37177670     1.36900
C67         C  0.27552939  0.28191899  0.31173490     0.77300
O68         O  0.21308157  0.32303708  0.35867348    -0.61100
O69         O  0.26889668  0.34471111  0.38403447    -0.52000
C70         C  0.26561232  0.28358963  0.43209106     0.70000
O71         O  0.25499960  0.27400789  0.40307487    -0.46900
C72         C  0.38910202  0.30806317  0.37281015     0.74700
O73         O  0.26126451  0.27312521  0.34057106    -0.58800
O74         O  0.36140928  0.32553311  0.36219438    -0.48900
O75         O  0.29610758  0.30291475  0.31380451    -0.55200
C76         C  0.22468506  0.34370855  0.37138835     0.84900
O77         O  0.28601041  0.30459637  0.42994274    -0.57100
O78         O  0.36461996  0.28923857  0.38240609    -0.60400
In79       In  0.50539761  0.95337054  0.37349773     1.36900
C80         C  0.43104595  0.92035076  0.36633741     0.77300
O81         O  0.54301415  0.97093275  0.32677094    -0.61100
O82         O  0.46500066  0.97768828  0.33457158    -0.52000
C83         C  0.50395976  0.98071815  0.43145417     0.70000
O84         O  0.46474942  0.97587897  0.41402436    -0.46900
C85         C  0.58007426  0.92085626  0.38258753     0.74700
O86         O  0.43258716  0.93591003  0.39063261    -0.58800
O87         O  0.58602437  0.94033055  0.36491958    -0.48900
O88         O  0.46765040  0.92196087  0.34505270    -0.55200
C89         C  0.50315229  0.98094286  0.31527496     0.84900
O90         O  0.54462758  0.97331553  0.41751566    -0.57100
O91         O  0.53697725  0.91903011  0.39683186    -0.60400
In92       In  0.50123790  0.05868441  0.12305620     1.36900
C93         C  0.42576215  0.09136264  0.12441374     0.77300
O94         O  0.53719681  0.03102450  0.15930626    -0.61100
O95         O  0.46456156  0.04471083  0.17234015    -0.52000
C96         C  0.50429196  0.03019495  0.06631809     0.70000
O97         O  0.46427061  0.03311520  0.08410468    -0.46900
C98         C  0.57586833  0.09170722  0.11842220     0.74700
O99         O  0.42479992  0.07265515  0.10482637    -0.58800
O100        O  0.57396185  0.07576080  0.14239084    -0.48900
O101        O  0.46428592  0.09255060  0.14394573    -0.55200
C102        C  0.50164647  0.03139943  0.18131231     0.84900
O103        O  0.54269614  0.04086490  0.07882518    -0.57100
O104        O  0.54071223  0.08986052  0.09626231    -0.60400
In105      In  0.71046624  0.71146540  0.12521098     1.36900
C106        C  0.74070331  0.73397716  0.06699148     0.77300
O107        O  0.77736887  0.69105709  0.14658773    -0.61100
O108        O  0.72863863  0.67194164  0.11213136    -0.52000
C109        C  0.72330409  0.73608871  0.18429212     0.70000
O110        O  0.75190541  0.73848808  0.15812662    -0.46900
C111        C  0.60999387  0.70886973  0.11991887     0.74700
O112        O  0.73473889  0.74499961  0.09552483    -0.58800
O113        O  0.63608268  0.69180525  0.13347768    -0.48900
O114        O  0.73207058  0.71109193  0.06856893    -0.55200
C115        C  0.76835087  0.67129760  0.13059079     0.84900
O116        O  0.68796206  0.72050778  0.18030470    -0.57100
O117        O  0.63580291  0.72671408  0.10852777    -0.60400
In118      In  0.79396222  0.80438162  0.37522962     1.36900
C119        C  0.76166315  0.78517835  0.31550510     0.77300
O120        O  0.71775202  0.82111320  0.38458673    -0.61100
O121        O  0.77886230  0.84536838  0.37354620    -0.52000
C122        C  0.78274060  0.78159509  0.43583091     0.70000
O123        O  0.77809490  0.77100555  0.40688099    -0.46900
C124        C  0.89551482  0.80412055  0.37164791     0.74700
O125        O  0.75036306  0.77622481  0.34473225    -0.58800
O126        O  0.87003912  0.82376916  0.37467827    -0.48900
O127        O  0.78877238  0.80439857  0.31706160    -0.55200
C128        C  0.73199412  0.84314099  0.38032248     0.84900
O129        O  0.79365972  0.80425793  0.43368118    -0.57100
O130        O  0.86875587  0.78490391  0.36970536    -0.60400
In131      In  0.28886946  0.70614671  0.11788747     1.36900
C132        C  0.26545905  0.72653677  0.17879219     0.77300
O133        O  0.21349893  0.68997075  0.10461171    -0.61100
O134        O  0.26812632  0.66604345  0.12675073    -0.52000
C135        C  0.27532032  0.73003820  0.05835931     0.70000
O136        O  0.26312731  0.73900684  0.08749031    -0.46900
C137        C  0.38987659  0.70458665  0.11683203     0.74700
O138        O  0.25117192  0.73508690  0.14994382    -0.58800
O139        O  0.36283861  0.68596266  0.10986175    -0.48900
O140        O  0.29150414  0.70701304  0.17645409    -0.55200
C141        C  0.22366968  0.66846144  0.11467480     0.84900
O142        O  0.29519761  0.70885952  0.06003322    -0.57100
O143        O  0.36479163  0.72369529  0.12432884    -0.60400
In144      In  0.21842411  0.80292940  0.36796485     1.36900
C145        C  0.23787536  0.78297496  0.42968222     0.77300
O146        O  0.29645088  0.81841940  0.35929065    -0.61100
O147        O  0.23750326  0.84352889  0.37130802    -0.52000
C148        C  0.23333820  0.77736911  0.30970398     0.70000
O149        O  0.25027900  0.77068672  0.33885781    -0.46900
C150        C  0.11681923  0.80512262  0.36815173     0.74700
O151        O  0.24523888  0.77213011  0.40111997    -0.58800
O152        O  0.14444057  0.82245963  0.35690233    -0.48900
O153        O  0.22127015  0.80475707  0.42662057    -0.55200
C154        C  0.28402739  0.84057101  0.36406470     0.84900
O155        O  0.20904280  0.79746868  0.31045361    -0.57100
O156        O  0.14168373  0.78692819  0.37952549    -0.60400
C157        C  0.25291400  0.76857430  0.02691270    -0.20600
C158        C  0.26648076  0.74346792  0.02525597    -0.07100
C159        C  0.26905880  0.73138579  0.49244297     0.13700
C160        C  0.26026231  0.74515490  0.46217378    -0.20600
C161        C  0.24729516  0.77033431  0.46338568    -0.07100
C162        C  0.24298493  0.78207427  0.49619433     0.13700
C163        C  0.22809948  0.80884676  0.49977484    -0.24000
H164        H  0.24991375  0.77749628  0.05209375     0.15000
H165        H  0.26296992  0.73592103  0.43721093     0.15000
C166        C  0.28037848  0.70418833  0.48880927    -0.23900
H167        H  0.22715639  0.81481147  0.52744829     0.05200
H168        H  0.18938522  0.81178064  0.48884117     0.08500
H169        H  0.25610999  0.82070282  0.48593295     0.08500
H170        H  0.25280938  0.69355618  0.00274452     0.08500
H171        H  0.31915376  0.70010792  0.49883853     0.08500
H172        H  0.27918408  0.69806608  0.46121314     0.05200
C173        C  0.28187367  0.73135572  0.24203225    -0.20600
C174        C  0.25421297  0.73875358  0.21250298    -0.07100
C175        C  0.21767997  0.75790483  0.21580880     0.13700
C176        C  0.21188511  0.76983798  0.24793132    -0.20600
C177        C  0.24071911  0.76302697  0.27717644    -0.07100
C178        C  0.27541982  0.74303458  0.27436371     0.13700
C179        C  0.30635418  0.73392888  0.30489300    -0.24000
H180        H  0.30939433  0.71650569  0.23973652     0.15000
H181        H  0.18438760  0.78470280  0.25015790     0.15000
C182        C  0.18386666  0.76579859  0.18602974    -0.23900
H183        H  0.33177490  0.71836047  0.29757554     0.05200
H184        H  0.28051972  0.72716843  0.32575854     0.08500
H185        H  0.33078162  0.74905650  0.31499206     0.08500
H186        H  0.16231282  0.74963743  0.17602673     0.08500
H187        H  0.20717387  0.77405539  0.16487668     0.08500
H188        H  0.15559684  0.77994186  0.19417855     0.05200
C189        C  0.97747408  0.82492976  0.35835735    -0.20600
C190        C  0.95201900  0.80377820  0.37038583    -0.07100
C191        C  0.98098953  0.78313369  0.38140738     0.13700
C192        C  0.03439344  0.78435827  0.38026033    -0.20600
C193        C  0.06007108  0.80551501  0.36818826    -0.07100
C194        C  0.03095673  0.82605277  0.35677348     0.13700
C195        C  0.05539035  0.84926024  0.34286672    -0.24000
H196        H  0.95524941  0.84068270  0.34977091     0.15000
H197        H  0.05625366  0.76852876  0.38897767     0.15000
C198        C  0.95631804  0.75996240  0.39537994    -0.23900
H199        H  0.02655485  0.86327400  0.33520384     0.05200
H200        H  0.07838799  0.84488897  0.31937310     0.08500
H201        H  0.07998354  0.85767142  0.36316584     0.08500
H202        H  0.93341905  0.75097548  0.37466644     0.08500
H203        H  0.93148430  0.76456605  0.41790331     0.08500
H204        H  0.98502517  0.74629151  0.40439523     0.05200
C205        C  0.52948390  0.68498617  0.11943619    -0.20600
C206        C  0.55378382  0.70806498  0.11791988    -0.07100
C207        C  0.52391819  0.72978212  0.11559151     0.13700
C208        C  0.47076533  0.72773538  0.11468936    -0.20600
C209        C  0.44630885  0.70469264  0.11625949    -0.07100
C210        C  0.47614373  0.68296013  0.11852907     0.13700
C211        C  0.45245788  0.65764971  0.12093008    -0.24000
H212        H  0.55241407  0.66838095  0.12134919     0.15000
H213        H  0.44805279  0.74441852  0.11295798     0.15000
C214        C  0.54721028  0.75528519  0.11532902    -0.23900
H215        H  0.48171805  0.64295270  0.12379558     0.05200
H216        H  0.43051553  0.65366914  0.09687441     0.08500
H217        H  0.42688245  0.65667157  0.14395905     0.08500
H218        H  0.57062344  0.75786913  0.09150940     0.08500
H219        H  0.57117855  0.75787283  0.13888475     0.08500
H220        H  0.51769755  0.77000249  0.11538066     0.05200
C221        C  0.75838433  0.73241314  0.00360157    -0.20600
C222        C  0.75499579  0.74666409  0.03406865    -0.07100
C223        C  0.76361233  0.77248290  0.03192571     0.13700
C224        C  0.77333469  0.78326130  0.99936997    -0.20600
C225        C  0.77496934  0.76876710  0.46954358    -0.07100
C226        C  0.76540568  0.74304286  0.47193406     0.13700
C227        C  0.76556087  0.72626426  0.44055601    -0.24000
H228        H  0.75248526  0.71263596  0.00510662     0.15000
H229        H  0.77899927  0.80305435  0.99783551     0.15000
C230        C  0.76250058  0.78905665  0.06347844    -0.23900
H231        H  0.75892616  0.70665945  0.44781639     0.05200
H232        H  0.80314145  0.72724946  0.42726152     0.08500
H233        H  0.73467536  0.73167149  0.42232171     0.08500
H234        H  0.79147248  0.78284541  0.08266287     0.08500
H235        H  0.72396862  0.78878232  0.07546843     0.08500
H236        H  0.77129429  0.80855473  0.05672667     0.05200
C237        C  0.77299365  0.78146429  0.25200335    -0.20600
C238        C  0.74706864  0.77361752  0.28198502    -0.07100
C239        C  0.71041736  0.75446509  0.27916575     0.13700
C240        C  0.70280536  0.74302062  0.24675358    -0.20600
C241        C  0.73091024  0.75003527  0.21714063    -0.07100
C242        C  0.76575597  0.76996804  0.21976414     0.13700
C243        C  0.79591591  0.77943152  0.18902592    -0.24000
H244        H  0.80054891  0.79631215  0.25393835     0.15000
H245        H  0.67542012  0.72809951  0.24476291     0.15000
C246        C  0.67892265  0.74596565  0.30982768    -0.23900
H247        H  0.81949464  0.79575807  0.19589280     0.05200
H248        H  0.76958992  0.78512805  0.16784687     0.08500
H249        H  0.82235403  0.76489971  0.17956801     0.08500
H250        H  0.65789086  0.76187394  0.32108665     0.08500
H251        H  0.70388143  0.73753831  0.32991385     0.08500
H252        H  0.65039218  0.73180364  0.30219369     0.05200
C253        C  0.67007925  0.90711143  0.37582591    -0.20600
C254        C  0.61958365  0.90133036  0.38507774    -0.07100
C255        C  0.60728068  0.87666521  0.39414690     0.13700
C256        C  0.64537296  0.85858488  0.39307990    -0.20600
C257        C  0.69555825  0.86410493  0.38289948    -0.07100
C258        C  0.70826959  0.88887958  0.37460542     0.13700
C259        C  0.76137436  0.89633859  0.36381554    -0.24000
H260        H  0.67959199  0.92597355  0.36895918     0.15000
H261        H  0.63536062  0.83974429  0.39969348     0.15000
C262        C  0.55383655  0.86874290  0.40370804    -0.23900
H263        H  0.76405788  0.91644038  0.35828741     0.05200
H264        H  0.77250399  0.88635463  0.33973729     0.08500
H265        H  0.78871203  0.89207588  0.38505368     0.08500
H266        H  0.52726413  0.87296880  0.38198480     0.08500
H267        H  0.54136560  0.87835830  0.42777044     0.08500
H268        H  0.55135604  0.84858810  0.40885834     0.05200
C269        C  0.30843388  0.88355401  0.37885313    -0.20600
C270        C  0.32098180  0.86130492  0.36218377    -0.07100
C271        C  0.36853086  0.85934651  0.34476113     0.13700
C272        C  0.40270157  0.87928302  0.34573136    -0.20600
C273        C  0.39116679  0.90103933  0.36391603    -0.07100
C274        C  0.34292543  0.90335554  0.38024793     0.13700
C275        C  0.32704816  0.92659586  0.39898948    -0.24000
H276        H  0.27183217  0.88524890  0.39179301     0.15000
H277        H  0.43944544  0.87755121  0.33298578     0.15000
C278        C  0.38370051  0.83653519  0.32474645    -0.23900
H279        H  0.28688267  0.92561827  0.40810758     0.05200
H280        H  0.33038028  0.94270131  0.38119142     0.08500
H281        H  0.35131241  0.92947003  0.42230285     0.08500
H282        H  0.35445734  0.83232830  0.30470287     0.08500
H283        H  0.38790414  0.82063485  0.34277715     0.08500
H284        H  0.42079590  0.83896666  0.31116816     0.05200
C285        C  0.45851389  0.01017767  0.01719313    -0.20600
C286        C  0.50524063  0.01657140  0.03268646    -0.07100
C287        C  0.55116151  0.01087374  0.01487518     0.13700
C288        C  0.54844022  0.00313832  0.47870971    -0.20600
C289        C  0.50278768  0.99323193  0.46584259    -0.07100
C290        C  0.45844653  0.99415212  0.48698919     0.13700
C291        C  0.40867857  0.98260157  0.47589938    -0.24000
H292        H  0.42326570  0.01418471  0.03083569     0.15000
H293        H  0.58264533  0.00202292  0.46290207     0.15000
C294        C  0.60302637  0.01565901  0.03046162    -0.23900
H295        H  0.37353015  0.99601091  0.98849925     0.05200
H296        H  0.41431505  0.96261808  0.47064650     0.08500
H297        H  0.39405944  0.99195289  0.45218829     0.08500
H298        H  0.60616563  0.00617763  0.05603728     0.08500
H299        H  0.60918054  0.03580127  0.03367555     0.08500
H300        H  0.63262154  0.02048399  0.50433076     0.05200
C301        C  0.54653127  0.99536837  0.26139254    -0.20600
C302        C  0.50172475  0.99454469  0.28150592    -0.07100
C303        C  0.45707955  0.00600294  0.26833472     0.13700
C304        C  0.45850168  0.01748359  0.23551011    -0.20600
C305        C  0.50314604  0.01805804  0.21524495    -0.07100
C306        C  0.54804636  0.00701138  0.22868677     0.13700
C307        C  0.59811809  0.00767625  0.20933042    -0.24000
H308        H  0.58091820  0.98676306  0.27129744     0.15000
H309        H  0.42417265  0.02614413  0.22560517     0.15000
C310        C  0.40765879  0.00644913  0.28844667    -0.23900
H311        H  0.62920017  0.99860683  0.22425621     0.05200
H312        H  0.60973533  0.02712781  0.20466401     0.08500
H313        H  0.59444084  0.99777161  0.18416253     0.08500
H314        H  0.41347849  0.01573973  0.31390348     0.08500
H315        H  0.39365974  0.98731954  0.29258655     0.08500
H316        H  0.37732800  0.01671021  0.27435506     0.05200
C317        C  0.30155580  0.12742146  0.11395632    -0.20600
C318        C  0.31719609  0.15116068  0.12428172    -0.07100
C319        C  0.36830288  0.15476098  0.13517766     0.13700
C320        C  0.40211738  0.13475323  0.13488276    -0.20600
C321        C  0.38680714  0.11116522  0.12401702    -0.07100
C322        C  0.33573124  0.10740329  0.11345692     0.13700
C323        C  0.31659956  0.08236598  0.10240486    -0.24000
H324        H  0.26242333  0.12453731  0.10583657     0.15000
H325        H  0.44128238  0.13767398  0.14294234     0.15000
C326        C  0.38776254  0.17937487  0.14793376    -0.23900
H327        H  0.27507940  0.08261502  0.09669522     0.05200
H328        H  0.32327029  0.06873020  0.12354610     0.08500
H329        H  0.33659850  0.07636109  0.07837821     0.08500
H330        H  0.36428154  0.18578580  0.17025029     0.08500
H331        H  0.38651716  0.19316441  0.12654625     0.08500
H332        H  0.42794730  0.17826485  0.15694868     0.05200
C333        C  0.28069524  0.26183379  0.21660495    -0.20600
C334        C  0.24699788  0.24164302  0.21700377    -0.07100
C335        C  0.22383164  0.23459118  0.24879859     0.13700
C336        C  0.23455700  0.24807863  0.27900857    -0.20600
C337        C  0.26751741  0.26852642  0.27855637    -0.07100
C338        C  0.29134258  0.27537891  0.24686015     0.13700
C339        C  0.32829138  0.29667339  0.24445447    -0.24000
H340        H  0.29875951  0.26718210  0.19232888     0.15000
H341        H  0.21624786  0.24274811  0.30320016     0.15000
C342        C  0.18670825  0.21337699  0.25128539    -0.23900
H343        H  0.34444467  0.29864925  0.21783545     0.05200
H344        H  0.36057718  0.29367551  0.26267669     0.08500
H345        H  0.30854728  0.31422888  0.25082860     0.08500
H346        H  0.20606676  0.19584667  0.24425426     0.08500
H347        H  0.15390775  0.21666292  0.23362591     0.08500
H348        H  0.17130420  0.21114315  0.27806586     0.05200
C349        C  0.26542854  0.26498562  0.02856400    -0.20600
C350        C  0.23248214  0.24456179  0.02871365    -0.07100
C351        C  0.20802383  0.23757243  0.99739674     0.13700
C352        C  0.21900670  0.25183611  0.46617035    -0.20600
C353        C  0.25521922  0.27096488  0.46563663    -0.07100
C354        C  0.27549999  0.27835182  0.99804929     0.13700
C355        C  0.31243981  0.29967151  0.00002217    -0.24000
H356        H  0.28412249  0.27040122  0.05254599     0.15000
H357        H  0.19889084  0.24717510  0.44241368     0.15000
C358        C  0.17013810  0.21663817  0.99608778    -0.23900
H359        H  0.32827954  0.30200988  0.02664225     0.05200
H360        H  0.29275959  0.31714395  0.99307929     0.08500
H361        H  0.34499278  0.29643217  0.98207719     0.08500
H362        H  0.13876323  0.22008462  0.01492500     0.08500
H363        H  0.18933959  0.19893147  0.00240485     0.08500
H364        H  0.14868879  0.21794177  0.46992950     0.05200
C365        C  0.52851740  0.32614470  0.35943607    -0.20600
C366        C  0.55330894  0.30752874  0.37852468    -0.07100
C367        C  0.52357555  0.28985481  0.39671863     0.13700
C368        C  0.47033795  0.29092712  0.39441960    -0.20600
C369        C  0.44552822  0.30910970  0.37459914    -0.07100
C370        C  0.47510151  0.32717772  0.35712594     0.13700
C371        C  0.45117705  0.34725614  0.33535366    -0.24000
H372        H  0.55112090  0.33973928  0.34558156     0.15000
H373        H  0.44785548  0.27728890  0.40828747     0.15000
C374        C  0.54705004  0.26991719  0.41904701    -0.23900
H375        H  0.48034012  0.35925347  0.32289504     0.05200
H376        H  0.42692476  0.35922059  0.35198459     0.08500
H377        H  0.42784079  0.33891827  0.31429903     0.08500
H378        H  0.57188154  0.27837723  0.43918645     0.08500
H379        H  0.56955606  0.25705025  0.40263275     0.08500
H380        H  0.51766658  0.25874313  0.43273845     0.05200
C381        C  0.66032393  0.10783512  0.13642508    -0.20600
C382        C  0.61537588  0.11125152  0.11714591    -0.07100
C383        C  0.60832309  0.13361906  0.09857808     0.13700
C384        C  0.64598588  0.15192591  0.10027773    -0.20600
C385        C  0.69071596  0.14867486  0.11984258    -0.07100
C386        C  0.69829177  0.12610637  0.13782175     0.13700
C387        C  0.74550779  0.12115230  0.15908095    -0.24000
H388        H  0.66579154  0.09072275  0.15061043     0.15000
H389        H  0.64013740  0.16908734  0.08629787     0.15000
C390        C  0.56075141  0.13889620  0.07774546    -0.23900
H391        H  0.74417400  0.10275513  0.17189148     0.05200
H392        H  0.74932575  0.13529138  0.17984011     0.08500
H393        H  0.77965209  0.12148406  0.14196857     0.08500
H394        H  0.52664700  0.13770837  0.09484882     0.08500
H395        H  0.55737914  0.12549789  0.05601065     0.08500
H396        H  0.56135924  0.15768202  0.06608888     0.05200
C397        C  0.97298411  0.21864358  0.15130850    -0.20600
C398        C  0.94744011  0.20321023  0.12763846    -0.07100
C399        C  0.97651447  0.18808515  0.10495704     0.13700
C400        C  0.02996266  0.18901475  0.10654380    -0.20600
C401        C  0.05524964  0.20497060  0.12951918    -0.07100
C402        C  0.02633882  0.21984012  0.15248128     0.13700
C403        C  0.05112934  0.23666001  0.17879874    -0.24000
H404        H  0.95103293  0.23011421  0.16893261     0.15000
H405        H  0.05225448  0.17769954  0.08890464     0.15000
C406        C  0.95207877  0.17145094  0.07829247    -0.23900
H407        H  0.02255502  0.24567615  0.19597082     0.05200
H408        H  0.07253538  0.25154708  0.16532585     0.08500
H409        H  0.07738717  0.22584848  0.19558142     0.08500
H410        H  0.92822238  0.18256850  0.06025316     0.08500
H411        H  0.92829246  0.15730432  0.09151304     0.08500
H412        H  0.98093589  0.16154216  0.06236387     0.05200
C413        C  0.77380276  0.23441976  0.50263856    -0.20600
C414        C  0.76539203  0.24625586  0.03212069    -0.07100
C415        C  0.74920397  0.27120087  0.03096432     0.13700
C416        C  0.74791164  0.28424679  0.49930132    -0.20600
C417        C  0.75089415  0.27055850  0.46828637    -0.07100
C418        C  0.76476168  0.24528030  0.47006637     0.13700
C419        C  0.76895709  0.22921082  0.43810704    -0.24000
H420        H  0.78362133  0.21500144  0.50373936     0.15000
H421        H  0.73792757  0.30364367  0.49805807     0.15000
C422        C  0.74194129  0.28639568  0.06349671    -0.23900
H423        H  0.77911403  0.20985371  0.44474929     0.05200
H424        H  0.79927400  0.23640369  0.42062909     0.08500
H425        H  0.73186290  0.22877053  0.42419071     0.08500
H426        H  0.77778692  0.28658743  0.07888298     0.08500
H427        H  0.71040866  0.27863995  0.07940659     0.08500
H428        H  0.73190563  0.30585380  0.05738848     0.05200
C429        C  0.74147734  0.26795401  0.21690332    -0.20600
C430        C  0.75044865  0.24234200  0.21776132    -0.07100
C431        C  0.74706791  0.22982755  0.25013122     0.13700
C432        C  0.73703269  0.24338969  0.28053625    -0.20600
C433        C  0.72949708  0.26909272  0.27980780    -0.07100
C434        C  0.73070310  0.28145519  0.24726551     0.13700
C435        C  0.72154272  0.30885551  0.24403384    -0.24000
H436        H  0.74322344  0.27763879  0.19220805     0.15000
H437        H  0.73533857  0.23373168  0.30525501     0.15000
C438        C  0.75428585  0.20228289  0.25329524    -0.23900
H439        H  0.72445648  0.31527880  0.21661015     0.05200
H440        H  0.75036684  0.31913227  0.25944675     0.08500
H441        H  0.68260226  0.31341507  0.25340670     0.08500
H442        H  0.79317715  0.19709612  0.24451326     0.08500
H443        H  0.72523263  0.19254517  0.23738375     0.08500
H444        H  0.74993965  0.19580600  0.28060403     0.05200
C445        C  0.19296194  0.62755800  0.13526577    -0.20600
C446        C  0.18597111  0.64806625  0.11336399    -0.07100
C447        C  0.14235374  0.64899916  0.09163793     0.13700
C448        C  0.10617548  0.63002535  0.09359292    -0.20600
C449        C  0.11186920  0.61002284  0.11657897    -0.07100
C450        C  0.15649066  0.60857719  0.13735329     0.13700
C451        C  0.16605689  0.58743732  0.16210896    -0.24000
H452        H  0.22657466  0.62669593  0.15165179     0.15000
H453        H  0.07259532  0.63109710  0.07721443     0.15000
C454        C  0.13347305  0.66966190  0.06590396    -0.23900
H455        H  0.20312874  0.58936615  0.17581969     0.05200
H456        H  0.16699158  0.56974844  0.14752060     0.08500
H457        H  0.13567986  0.58682158  0.18225466     0.08500
H458        H  0.16675501  0.67133873  0.04814017     0.08500
H459        H  0.12720266  0.68732844  0.07988000     0.08500
H460        H  0.09919847  0.66633365  0.04958298     0.05200
C461        C  0.80039460  0.63250252  0.10443310    -0.20600
C462        C  0.80278732  0.64963326  0.13180533    -0.07100
C463        C  0.83967929  0.64636826  0.15832053     0.13700
C464        C  0.87454865  0.62684867  0.15571176    -0.20600
C465        C  0.87410265  0.61049846  0.12731575    -0.07100
C466        C  0.83571596  0.61312344  0.10158633     0.13700
C467        C  0.83228082  0.59624835  0.07045686    -0.24000
H468        H  0.77188239  0.63485643  0.08426305     0.15000
H469        H  0.90318875  0.62469539  0.17582819     0.15000
C470        C  0.84276362  0.66315350  0.18960611    -0.23900
H471        H  0.80004947  0.60127356  0.05307665     0.05200
H472        H  0.82609073  0.57692868  0.07920384     0.08500
H473        H  0.86786563  0.59749017  0.05485502     0.08500
H474        H  0.80530896  0.66368271  0.20311233     0.08500
H475        H  0.85399866  0.68205037  0.18143619     0.08500
H476        H  0.87166799  0.65669973  0.20869391     0.05200
C477        C  0.14928695  0.40070605  0.39811673    -0.20600
C478        C  0.11537697  0.40291370  0.37006568    -0.07100
C479        C  0.11809519  0.38579633  0.34227350     0.13700
C480        C  0.15501682  0.36709601  0.34322563    -0.20600
C481        C  0.18901244  0.36485098  0.37123437    -0.07100
C482        C  0.18633026  0.38196789  0.39900415     0.13700
C483        C  0.22086219  0.38003591  0.43025928    -0.24000
H484        H  0.14663074  0.41370747  0.41949762     0.15000
H485        H  0.15672320  0.35387946  0.32204782     0.15000
C486        C  0.08136261  0.38571920  0.31203136    -0.23900
H487        H  0.21171671  0.39422299  0.45018144     0.05200
H488        H  0.26111918  0.38282283  0.42222267     0.08500
H489        H  0.21655070  0.36157828  0.44257593     0.08500
H490        H  0.10266765  0.38880029  0.28740425     0.08500
H491        H  0.05113975  0.39988986  0.31397958     0.08500
H492        H  0.06207065  0.36748264  0.31063316     0.05200
C493        C  0.84602436  0.40300653  0.39197428    -0.20600
C494        C  0.88818446  0.40073171  0.36956744    -0.07100
C495        C  0.89321021  0.37907526  0.34915288     0.13700
C496        C  0.85580813  0.36062251  0.35143372    -0.20600
C497        C  0.81345220  0.36298797  0.37356073    -0.07100
C498        C  0.80866641  0.38445842  0.39431542     0.13700
C499        C  0.76550601  0.38767880  0.41987092    -0.24000
H500        H  0.84233707  0.41939432  0.40794529     0.15000
H501        H  0.85977177  0.34411986  0.33572121     0.15000
C502        C  0.93857796  0.37466304  0.32580616    -0.23900
H503        H  0.76938666  0.40500504  0.43510967     0.05200
H504        H  0.76507189  0.37200475  0.43856050     0.08500
H505        H  0.72862094  0.38855672  0.40578473     0.08500
H506        H  0.97415638  0.37543051  0.34142158     0.08500
H507        H  0.93975739  0.38876435  0.30482063     0.08500
H508        H  0.93702471  0.35625784  0.31309720     0.05200
C509        C  0.04280897  0.51787980  0.51164086    -0.20600
C510        C  0.99370498  0.51991097  0.02830796    -0.07100
C511        C  0.94851588  0.51099275  0.01250171     0.13700
C512        C  0.95516461  0.49924391  0.48034738    -0.20600
C513        C  0.00204477  0.49678575  0.46288587    -0.07100
C514        C  0.04648773  0.50657155  0.47871971     0.13700
C515        C  0.09782618  0.50569151  0.46105545    -0.24000
H516        H  0.07697674  0.52525446  0.52358754     0.15000
H517        H  0.91668414  0.49230448  0.96816261     0.15000
C518        C  0.89688445  0.51408465  0.02927649    -0.23900
H519        H  0.12762064  0.51529376  0.47650707     0.05200
H520        H  0.09557226  0.51491972  0.43525195     0.08500
H521        H  0.11020307  0.48623419  0.45777756     0.08500
H522        H  0.88926249  0.53398396  0.03400603     0.08500
H523        H  0.89547250  0.50375530  0.05424123     0.08500
H524        H  0.86575010  0.50690236  0.01250573     0.05200
C525        C  0.94741218  0.51542610  0.23130238    -0.20600
C526        C  0.99396329  0.52041019  0.21448717    -0.11900
C527        C  0.04001461  0.51479453  0.23213476     0.13700
C528        C  0.03806226  0.50375803  0.26527036    -0.20600
C529        C  0.99155309  0.49817031  0.28174172    -0.07100
C530        C  0.94547429  0.50450169  0.26456943     0.13700
C531        C  0.89400380  0.50025160  0.28105850    -0.24000
H532        H  0.91203134  0.52010741  0.21828675     0.15000
H533        H  0.07351021  0.49914617  0.27824204     0.15000
C534        C  0.09158715  0.52073659  0.21682164    -0.23900
H535        H  0.86253423  0.50751800  0.26462285     0.05200
H536        H  0.89213169  0.50982367  0.30659441     0.08500
H537        H  0.88725261  0.48017788  0.28463999     0.08500
H538        H  0.09446142  0.54086431  0.21154631     0.08500
H539        H  0.09735227  0.51019711  0.19235749     0.08500
H540        H  0.12313210  0.51573712  0.23478838     0.05200
In541      In  0.99513794  0.45453895  0.87116363     1.36900
C542        C  0.07154576  0.42225347  0.87076428     0.77300
O543        O  0.03712750  0.47433698  0.91408694    -0.61100
O544        O  0.95714934  0.47800756  0.91205952    -0.52000
C545        C  0.98832094  0.48428632  0.81559395     0.70000
O546        O  0.02910125  0.48098395  0.83233572    -0.46900
C547        C  0.92220965  0.42034584  0.86850480     0.74700
O548        O  0.06384489  0.43720026  0.84615617    -0.58800
O549        O  0.92744296  0.43487118  0.89389459    -0.48900
O550        O  0.04185287  0.42466891  0.89634589    -0.55200
C551        C  0.99764677  0.48296799  0.92827381     0.84900
O552        O  0.95029616  0.47374868  0.82903189    -0.57100
O553        O  0.95336477  0.42399458  0.84407311    -0.60400
In554      In  0.99137176  0.56013229  0.62207020     1.36900
C555        C  0.06767889  0.59237573  0.61927844     0.77300
O556        O  0.95678260  0.53359029  0.58349907    -0.61100
O557        O  0.03239873  0.54500105  0.57496560    -0.52000
C558        C  0.99000445  0.53271979  0.68022867     0.70000
O559        O  0.02821070  0.53418535  0.66045275    -0.46900
C560        C  0.91438359  0.59209633  0.62579421     0.74700
O561        O  0.06530916  0.57543717  0.64179630    -0.58800
O562        O  0.91535031  0.57453501  0.60426446    -0.48900
O563        O  0.03082103  0.59254978  0.59815889    -0.55200
C564        C  0.99496076  0.53294247  0.56360901     0.84900
O565        O  0.95130364  0.54371657  0.66867262    -0.57100
O566        O  0.95277716  0.59295474  0.64549141    -0.60400
In567      In  0.78653557  0.20865206  0.62599885     1.36900
C568        C  0.75711215  0.22702194  0.68689238     0.77300
O569        O  0.71100366  0.19186575  0.61399756    -0.61100
O570        O  0.76926405  0.16814927  0.63199692    -0.52000
C571        C  0.77636330  0.23424343  0.56707062     0.70000
O572        O  0.77077719  0.24377860  0.59673534    -0.46900
C573        C  0.88786587  0.20594836  0.62785884     0.74700
O574        O  0.74614253  0.23684594  0.65803947    -0.58800
O575        O  0.86296608  0.22322753  0.64172359    -0.48900
O576        O  0.78212656  0.20721478  0.68428963    -0.55200
C577        C  0.72372733  0.17014056  0.62191991     0.84900
O578        O  0.78760434  0.21161295  0.56790928    -0.57100
O579        O  0.86042277  0.18977267  0.61361712    -0.60400
In580      In  0.70696094  0.30393655  0.87498462     1.36900
C581        C  0.73428145  0.28231187  0.93420364     0.77300
O582        O  0.78295142  0.32066219  0.86263129    -0.61100
O583        O  0.72704347  0.34369692  0.88519804    -0.52000
C584        C  0.71524534  0.27928972  0.81537714     0.70000
O585        O  0.72235573  0.26944875  0.84472874    -0.46900
C586        C  0.60572152  0.30748511  0.87719044     0.74700
O587        O  0.74837096  0.27477329  0.90471442    -0.58800
O588        O  0.63336418  0.32432800  0.86449308    -0.48900
O589        O  0.70732429  0.30162048  0.93331861    -0.55200
C590        C  0.77180207  0.34191073  0.87351344     0.84900
O591        O  0.70346119  0.30183011  0.81677571    -0.57100
O592        O  0.63036359  0.28930459  0.88864627    -0.60400
In593      In  0.20992819  0.20981494  0.62255196     1.36900
C594        C  0.22472414  0.23211256  0.56146953     0.77300
O595        O  0.28905296  0.19471061  0.62429337    -0.61100
O596        O  0.22863704  0.16907257  0.62029918    -0.52000
C597        C  0.23172041  0.22994105  0.68356649     0.70000
O598        O  0.24101407  0.24040038  0.65489113    -0.46900
C599        C  0.10868707  0.20815120  0.62712306     0.74700
O600        O  0.23478436  0.24204631  0.59025455    -0.58800
O601        O  0.13536171  0.18934825  0.62049448    -0.48900
O602        O  0.20715038  0.21054206  0.56397507    -0.55200
C603        C  0.27614252  0.17236571  0.62264314     0.84900
O604        O  0.21194965  0.20877571  0.68082384    -0.57100
O605        O  0.13401491  0.22765227  0.63120285    -0.60400
In606      In  0.28397785  0.30554177  0.87234807     1.36900
C607        C  0.27109073  0.28198220  0.81243971     0.77300
O608        O  0.21021601  0.32379932  0.85804412    -0.61100
O609        O  0.26451894  0.34481386  0.88587087    -0.52000
C610        C  0.26187244  0.28381981  0.93285249     0.70000
O611        O  0.25053084  0.27441774  0.90385162    -0.46900
C612        C  0.38503298  0.30900372  0.87248789     0.74700
O613        O  0.25640514  0.27336205  0.84129718    -0.58800
O614        O  0.35682987  0.32649822  0.86262624    -0.48900
O615        O  0.29213639  0.30287275  0.81447768    -0.55200
C616        C  0.22117345  0.34418110  0.87188355     0.84900
O617        O  0.28299486  0.30463653  0.93055640    -0.57100
O618        O  0.36115160  0.28987725  0.88162341    -0.60400
In619      In  0.50641914  0.95480210  0.87311911     1.36900
C620        C  0.43277440  0.92124024  0.86761328     0.77300
O621        O  0.54454064  0.97922437  0.83266517    -0.61100
O622        O  0.46573505  0.97267719  0.82828370    -0.52000
C623        C  0.50370770  0.98192090  0.93130334     0.70000
O624        O  0.46573865  0.97941039  0.91164009    -0.46900
C625        C  0.58150969  0.92242783  0.88059805     0.74700
O626        O  0.43243295  0.93824671  0.88999784    -0.58800
O627        O  0.58479282  0.94051450  0.85991195    -0.48900
O628        O  0.47075493  0.92178928  0.84736378    -0.55200
C629        C  0.50446345  0.98278134  0.81530056     0.84900
O630        O  0.54372801  0.97222391  0.91954755    -0.57100
O631        O  0.54097659  0.92183371  0.89815026    -0.60400
In632      In  0.49884188  0.05920312  0.62189493     1.36900
C633        C  0.42241727  0.09177941  0.62290349     0.77300
O634        O  0.53858656  0.03435183  0.66031597    -0.61100
O635        O  0.46240537  0.04410477  0.67068790    -0.52000
C636        C  0.50429609  0.03027529  0.56552051     0.70000
O637        O  0.46561517  0.03078353  0.58509158    -0.46900
C638        C  0.57279968  0.09231784  0.61744085     0.74700
O639        O  0.42234850  0.07325853  0.60294268    -0.58800
O640        O  0.57298778  0.07533859  0.63997570    -0.48900
O641        O  0.46035542  0.09271793  0.64298921    -0.55200
C642        C  0.50182704  0.03313623  0.68130005     0.84900
O643        O  0.54030868  0.04355930  0.57608811    -0.57100
O644        O  0.53590866  0.09151091  0.59648735    -0.60400
In645      In  0.70936394  0.71187542  0.62611191     1.36900
C646        C  0.73957946  0.73438796  0.56798185     0.77300
O647        O  0.77347691  0.69036923  0.64954011    -0.61100
O648        O  0.72915047  0.67282717  0.61104100    -0.52000
C649        C  0.72468131  0.73735406  0.68408683     0.70000
O650        O  0.75385123  0.73841930  0.65802637    -0.46900
C651        C  0.60866036  0.70897198  0.62211719     0.74700
O652        O  0.73551234  0.74532164  0.59672954    -0.58800
O653        O  0.63521874  0.69210332  0.63573748    -0.48900
O654        O  0.72874190  0.71172745  0.56932639    -0.55200
C655        C  0.76661795  0.67133799  0.63145932     0.84900
O656        O  0.68733364  0.72285304  0.68039760    -0.57100
O657        O  0.63406582  0.72674998  0.61009682    -0.60400
In658      In  0.79485863  0.80587581  0.87528387     1.36900
C659        C  0.76497607  0.78680527  0.81484321     0.77300
O660        O  0.71873391  0.82281954  0.88379635    -0.61100
O661        O  0.78028594  0.84695463  0.87351093    -0.52000
C662        C  0.78285297  0.78227286  0.93525700     0.70000
O663        O  0.78044346  0.77178256  0.90608023    -0.46900
C664        C  0.89626802  0.80614245  0.87379382     0.74700
O665        O  0.74748770  0.77988361  0.84373081    -0.58800
O666        O  0.87031010  0.82577721  0.87454920    -0.48900
O667        O  0.79726549  0.80399037  0.81699862    -0.55200
C668        C  0.73323106  0.84480883  0.87969436     0.84900
O669        O  0.79180920  0.80516459  0.93358728    -0.57100
O670        O  0.87005549  0.78668402  0.87338592    -0.60400
In671      In  0.28722002  0.70681376  0.61870961     1.36900
C672        C  0.26590755  0.72816040  0.67927072     0.77300
O673        O  0.21032665  0.69138962  0.60724300    -0.61100
O674        O  0.26572358  0.66676524  0.62680563    -0.52000
C675        C  0.27402209  0.72995430  0.55851746     0.70000
O676        O  0.26039439  0.73892914  0.58732774    -0.46900
C677        C  0.38832040  0.70476465  0.61868879     0.74700
O678        O  0.25379011  0.73724263  0.65028249    -0.58800
O679        O  0.36111448  0.68607421  0.61238078    -0.48900
O680        O  0.28856124  0.70765440  0.67727662    -0.55200
C681        C  0.22063296  0.66962422  0.61610983     0.84900
O682        O  0.29495359  0.70903348  0.56075093    -0.57100
O683        O  0.36331509  0.72413175  0.62484095    -0.60400
In684      In  0.21905894  0.80404008  0.86870638     1.36900
C685        C  0.23799750  0.78368934  0.93019209     0.77300
O686        O  0.29780192  0.81898469  0.86102584    -0.61100
O687        O  0.23930230  0.84438590  0.87299879    -0.52000
C688        C  0.23468004  0.77905202  0.81009645     0.70000
O689        O  0.24855116  0.77133402  0.83950116    -0.46900
C690        C  0.11743539  0.80675872  0.86899718     0.74700
O691        O  0.24458824  0.77284533  0.90152971    -0.58800
O692        O  0.14527624  0.82389106  0.85739075    -0.48900
O693        O  0.22242963  0.80566660  0.92733984    -0.55200
C694        C  0.28586602  0.84118146  0.86605189     0.84900
O695        O  0.21275946  0.79978413  0.81078242    -0.57100
O696        O  0.14206811  0.78852313  0.88041224    -0.60400
C697        C  0.25266164  0.76837336  0.52654631    -0.20600
C698        C  0.26573882  0.74319835  0.52520672    -0.07100
C699        C  0.26969450  0.73184011  0.99233989     0.13700
C700        C  0.26054639  0.74574211  0.96226047    -0.20600
C701        C  0.24732465  0.77087245  0.96377171    -0.07100
C702        C  0.24280963  0.78239662  0.99672496     0.13700
C703        C  0.22712338  0.80903824  0.00063080    -0.24000
H704        H  0.24974870  0.77745467  0.55161947     0.15000
H705        H  0.26331690  0.73665785  0.93719163     0.15000
C706        C  0.28142790  0.70470775  0.98829650    -0.23900
H707        H  0.22575300  0.81478955  0.02838588     0.05200
H708        H  0.18842955  0.81178612  0.98956090     0.08500
H709        H  0.25491042  0.82118778  0.98709260     0.08500
H710        H  0.25153638  0.69325152  0.50337574     0.08500
H711        H  0.32032156  0.70070144  0.99817490     0.08500
H712        H  0.28020517  0.69876743  0.96062246     0.05200
C713        C  0.28512037  0.73403788  0.74188691    -0.20600
C714        C  0.25586255  0.74078336  0.71278729    -0.07100
C715        C  0.21855129  0.75953653  0.71632469     0.13700
C716        C  0.21283489  0.77148531  0.74844167    -0.20600
C717        C  0.24263405  0.76506083  0.77739466    -0.07100
C718        C  0.27887646  0.74576565  0.77419199     0.13700
C719        C  0.31180996  0.73758223  0.80425730    -0.24000
H720        H  0.31358102  0.71963381  0.73926213     0.15000
H721        H  0.18443540  0.78592360  0.75098750     0.15000
C722        C  0.18358899  0.76678860  0.68685096    -0.23900
H723        H  0.33903365  0.72285741  0.79650204     0.05200
H724        H  0.28755018  0.72998320  0.82542066     0.08500
H725        H  0.33440415  0.75343677  0.81414167     0.08500
H726        H  0.16282162  0.75027350  0.67722750     0.08500
H727        H  0.20590443  0.77523840  0.66535512     0.08500
H728        H  0.15469058  0.78057532  0.69518532     0.05200
C729        C  0.97805196  0.82628971  0.85810696    -0.20600
C730        C  0.95274410  0.80599882  0.87293258    -0.07100
C731        C  0.98179864  0.78615783  0.88645277     0.13700
C732        C  0.03514526  0.78721492  0.88469945    -0.20600
C733        C  0.06071409  0.80741670  0.86963504    -0.07100
C734        C  0.03152643  0.82721264  0.85593264     0.13700
C735        C  0.05587257  0.84929392  0.83870676    -0.24000
H736        H  0.95572039  0.84141341  0.84760712     0.15000
H737        H  0.05705095  0.77199213  0.89530715     0.15000
C738        C  0.95728165  0.76405712  0.90365703    -0.23900
H739        H  0.02698151  0.86271325  0.82923309     0.05200
H740        H  0.07866810  0.84324485  0.81587126     0.08500
H741        H  0.08067207  0.85909156  0.85759864     0.08500
H742        H  0.93431169  0.75362369  0.88438323     0.08500
H743        H  0.93255533  0.77020433  0.92548956     0.08500
H744        H  0.98608998  0.75110528  0.91445600     0.05200
C745        C  0.52808455  0.68498228  0.62149295    -0.20600
C746        C  0.55239258  0.70808475  0.62065040    -0.07100
C747        C  0.52250832  0.72981876  0.61917113     0.13700
C748        C  0.46937809  0.72779868  0.61823547    -0.20600
C749        C  0.44483597  0.70475011  0.61879357    -0.07100
C750        C  0.47468533  0.68297324  0.62040783     0.13700
C751        C  0.45098642  0.65762714  0.62165172    -0.24000
H752        H  0.55105862  0.66836156  0.62279352     0.15000
H753        H  0.44677408  0.74453824  0.61708975     0.15000
C754        C  0.54580404  0.75531858  0.61972100    -0.23900
H755        H  0.48024491  0.64287339  0.62388021     0.05200
H756        H  0.42908309  0.65419702  0.59740850     0.08500
H757        H  0.42536963  0.65613226  0.64460322     0.08500
H758        H  0.56880249  0.75837475  0.59582581     0.08500
H759        H  0.57017585  0.75744538  0.64317444     0.08500
H760        H  0.51630441  0.77002955  0.62056925     0.05200
C761        C  0.75524683  0.73255998  0.50456445    -0.20600
C762        C  0.75434930  0.74684708  0.53504287    -0.07100
C763        C  0.76599081  0.77238032  0.53285990     0.13700
C764        C  0.77606090  0.78291297  0.50016801    -0.20600
C765        C  0.77497688  0.76913273  0.96876232    -0.07100
C766        C  0.76831954  0.74318502  0.97105291     0.13700
C767        C  0.77151008  0.72650635  0.93965603    -0.24000
H768        H  0.74710767  0.71297237  0.50611313     0.15000
H769        H  0.78402485  0.80251625  0.49852917     0.15000
C770        C  0.76771016  0.78886182  0.56448848    -0.23900
H771        H  0.76682968  0.70674477  0.94677888     0.05200
H772        H  0.80938952  0.72852371  0.92700101     0.08500
H773        H  0.74076152  0.73115073  0.92090424     0.08500
H774        H  0.79641136  0.78179549  0.58327200     0.08500
H775        H  0.72955387  0.78959715  0.57698732     0.08500
H776        H  0.77859560  0.80810315  0.55768667     0.05200
C777        C  0.78129391  0.78064176  0.75211959    -0.20600
C778        C  0.75091372  0.77521621  0.78123159    -0.07100
C779        C  0.70992402  0.75833607  0.77761349     0.13700
C780        C  0.70183669  0.74684452  0.74534020    -0.20600
C781        C  0.73373211  0.75146157  0.71662326    -0.07100
C782        C  0.77362868  0.76897732  0.72001094     0.13700
C783        C  0.80887817  0.77554974  0.69032207    -0.24000
H784        H  0.81241555  0.79367804  0.75468821     0.15000
H785        H  0.67086612  0.73372097  0.74279868     0.15000
C786        C  0.67437932  0.75219358  0.80731392    -0.23900
H787        H  0.83674803  0.79006941  0.69774166     0.05200
H788        H  0.78644048  0.78273509  0.66798486     0.08500
H789        H  0.83109344  0.75905703  0.68229125     0.08500
H790        H  0.65633883  0.76934310  0.81728681     0.08500
H791        H  0.69570752  0.74285277  0.82852784     0.08500
H792        H  0.64334102  0.73951086  0.79910019     0.05200
C793        C  0.67147320  0.90875479  0.87405843    -0.20600
C794        C  0.62094475  0.90298187  0.88308122    -0.07100
C795        C  0.60840058  0.87839450  0.89224642     0.13700
C796        C  0.64642479  0.86029447  0.89156179    -0.20600
C797        C  0.69681485  0.86578927  0.88179372    -0.07100
C798        C  0.70969420  0.89052836  0.87337644     0.13700
C799        C  0.76300588  0.89794377  0.86304574    -0.24000
H800        H  0.68098467  0.92761005  0.86714000     0.15000
H801        H  0.63622892  0.84148379  0.89821406     0.15000
C802        C  0.55467517  0.87061725  0.90131987    -0.23900
H803        H  0.76578832  0.91802342  0.85737608     0.05200
H804        H  0.77463957  0.88785221  0.83917041     0.08500
H805        H  0.78989222  0.89377334  0.88458678     0.08500
H806        H  0.52845439  0.87527280  0.87957273     0.08500
H807        H  0.54207304  0.88000065  0.92552675     0.08500
H808        H  0.55175369  0.85041552  0.90597365     0.05200
C809        C  0.31067636  0.88404153  0.88111590    -0.20600
C810        C  0.32325457  0.86175344  0.86457733    -0.07100
C811        C  0.37089894  0.85973146  0.84731171     0.13700
C812        C  0.40501628  0.87970619  0.84817153    -0.20600
C813        C  0.39325292  0.90163976  0.86594001    -0.07100
C814        C  0.34495567  0.90393958  0.88222399     0.13700
C815        C  0.32866778  0.92726868  0.90056085    -0.24000
H816        H  0.27401830  0.88576578  0.89397203     0.15000
H817        H  0.44173887  0.87793369  0.83541557     0.15000
C818        C  0.38610540  0.83686037  0.82743595    -0.23900
H819        H  0.28863482  0.92615091  0.90991759     0.05200
H820        H  0.33132858  0.94319976  0.88240208     0.08500
H821        H  0.35313492  0.93052807  0.92367431     0.08500
H822        H  0.35703650  0.83267208  0.80726419     0.08500
H823        H  0.38997568  0.82097994  0.84553829     0.08500
H824        H  0.42335254  0.83920527  0.81402269     0.05200
C825        C  0.46080014  0.00571758  0.51968514    -0.20600
C826        C  0.50611174  0.01637786  0.53210008    -0.07100
C827        C  0.55088791  0.01464119  0.51140037     0.13700
C828        C  0.54882986  0.00005565  0.98174691    -0.20600
C829        C  0.50215847  0.99434230  0.96579070    -0.07100
C830        C  0.45627002  0.99898746  0.98420602     0.13700
C831        C  0.40483432  0.99173322  0.96994463    -0.24000
H832        H  0.42656967  0.00673924  0.53546954     0.15000
H833        H  0.58410050  0.99599700  0.96815863     0.15000
C834        C  0.60170934  0.02462042  0.52325361    -0.23900
H835        H  0.37890580  0.98428055  0.49636411     0.05200
H836        H  0.40392871  0.97154360  0.96487722     0.08500
H837        H  0.39704703  0.00200607  0.94549405     0.08500
H838        H  0.61246007  0.01607529  0.54850836     0.08500
H839        H  0.59976050  0.04500444  0.52592101     0.08500
H840        H  0.63425867  0.00862292  0.01360516     0.05200
C841        C  0.54913510  0.99972442  0.76323652    -0.20600
C842        C  0.50341271  0.99676924  0.78189575    -0.07100
C843        C  0.45783387  0.00661834  0.76776220     0.13700
C844        C  0.45897334  0.01819385  0.73502927    -0.20600
C845        C  0.50430093  0.02045368  0.71575987    -0.07100
C846        C  0.55035831  0.01148188  0.73052918     0.13700
C847        C  0.60115549  0.01440717  0.71252481    -0.24000
H848        H  0.58421389  0.99245733  0.77411007     0.15000
H849        H  0.42380386  0.02548861  0.72435217     0.15000
C850        C  0.40781867  0.00559332  0.78714451    -0.23900
H851        H  0.63295527  0.00684423  0.72838388     0.05200
H852        H  0.60914490  0.03429750  0.70797445     0.08500
H853        H  0.60092932  0.00432739  0.68737062     0.08500
H854        H  0.41221134  0.01417158  0.81323414     0.08500
H855        H  0.39504963  0.98615481  0.78993566     0.08500
H856        H  0.37718528  0.01573836  0.77319655     0.05200
C857        C  0.29968615  0.12887512  0.60881416    -0.20600
C858        C  0.31358247  0.15177083  0.62322705    -0.07100
C859        C  0.36279075  0.15445017  0.63794909     0.13700
C860        C  0.39657511  0.13441192  0.63743225    -0.20600
C861        C  0.38323013  0.11164483  0.62250227    -0.07100
C862        C  0.33396194  0.10885595  0.60790846     0.13700
C863        C  0.31682332  0.08490234  0.59177542    -0.24000
H864        H  0.26197864  0.12673225  0.59766182     0.15000
H865        H  0.43422105  0.13671143  0.64861224     0.15000
C866        C  0.38003353  0.17808332  0.65511111    -0.23900
H867        H  0.27653473  0.08581212  0.58293737     0.05200
H868        H  0.31989243  0.06973074  0.61114417     0.08500
H869        H  0.34072819  0.08062536  0.56868641     0.08500
H870        H  0.35310967  0.18317152  0.67626702     0.08500
H871        H  0.38213871  0.19317039  0.63557722     0.08500
H872        H  0.41855361  0.17624415  0.66685522     0.05200
C873        C  0.27761584  0.26179493  0.71738260    -0.20600
C874        C  0.24297963  0.24200351  0.71728937    -0.07100
C875        C  0.21864110  0.23516597  0.74876650     0.13700
C876        C  0.22929933  0.24846387  0.77921782    -0.20600
C877        C  0.26318315  0.26857807  0.77920844    -0.07100
C878        C  0.28807057  0.27519567  0.74778249     0.13700
C879        C  0.32595493  0.29612336  0.74578361    -0.24000
H880        H  0.29655092  0.26696327  0.69333832     0.15000
H881        H  0.21015381  0.24331615  0.80318590     0.15000
C882        C  0.18018657  0.21448239  0.75052993    -0.23900
H883        H  0.34290423  0.29790454  0.71936961     0.05200
H884        H  0.35762088  0.29284576  0.76441251     0.08500
H885        H  0.30676801  0.31387980  0.75183676     0.08500
H886        H  0.19872267  0.19670097  0.74372863     0.08500
H887        H  0.14825988  0.21825383  0.73230238     0.08500
H888        H  0.16371828  0.21243463  0.77704347     0.05200
C889        C  0.27013686  0.26400547  0.52737995    -0.20600
C890        C  0.23400952  0.24487673  0.52791770    -0.07100
C891        C  0.20778025  0.23881326  0.49688359     0.13700
C892        C  0.21824733  0.25087125  0.96673425    -0.20600
C893        C  0.25171767  0.27116709  0.96649916    -0.07100
C894        C  0.28131992  0.27705336  0.49675849     0.13700
C895        C  0.32204886  0.29672033  0.49800429    -0.24000
H896        H  0.29038156  0.26861744  0.55110899     0.15000
H897        H  0.19966574  0.24540413  0.94274175     0.15000
C898        C  0.16687458  0.21925107  0.49598221    -0.23900
H899        H  0.33984062  0.29807203  0.52418076     0.05200
H900        H  0.30523221  0.31503241  0.49193235     0.08500
H901        H  0.35273559  0.29233110  0.47903406     0.08500
H902        H  0.13659039  0.22373396  0.51520879     0.08500
H903        H  0.18357445  0.20091351  0.50202589     0.08500
H904        H  0.15287306  0.21467199  0.96982829     0.05200
C905        C  0.52440673  0.32654401  0.85732454    -0.20600
C906        C  0.54916590  0.30864732  0.87782172    -0.07100
C907        C  0.51931656  0.29192885  0.89768805     0.13700
C908        C  0.46614225  0.29303893  0.89547233    -0.20600
C909        C  0.44138610  0.31033576  0.87419362    -0.07100
C910        C  0.47090800  0.32763879  0.85522060     0.13700
C911        C  0.44674398  0.34682833  0.83203394    -0.24000
H912        H  0.54703495  0.33946815  0.84226369     0.15000
H913        H  0.44359934  0.28008673  0.91055621     0.15000
C914        C  0.54251510  0.27286432  0.92162368    -0.23900
H915        H  0.47579721  0.35824364  0.81841709     0.05200
H916        H  0.42279904  0.35947584  0.84784635     0.08500
H917        H  0.42296256  0.33767860  0.81190177     0.08500
H918        H  0.56760295  0.28204477  0.94097113     0.08500
H919        H  0.56460544  0.25918770  0.90628056     0.08500
H920        H  0.51301598  0.26243356  0.93632634     0.05200
C921        C  0.66082755  0.10661462  0.62915358    -0.20600
C922        C  0.61189262  0.11191438  0.61643710    -0.07100
C923        C  0.60058741  0.13607053  0.60473399     0.13700
C924        C  0.63830439  0.15429973  0.60657422    -0.20600
C925        C  0.68724501  0.14921923  0.61963939    -0.07100
C926        C  0.69890763  0.12483402  0.63059135     0.13700
C927        C  0.75090051  0.11768612  0.64394678    -0.24000
H928        H  0.66933627  0.08804691  0.63799585     0.15000
H929        H  0.62908443  0.17282924  0.59797662     0.15000
C930        C  0.54841802  0.14320313  0.59149764    -0.23900
H931        H  0.75283939  0.09780462  0.65101505     0.05200
H932        H  0.76013534  0.12850360  0.66765879     0.08500
H933        H  0.78003522  0.12109901  0.62349320     0.08500
H934        H  0.51917101  0.13917788  0.61165759     0.08500
H935        H  0.53959777  0.13285514  0.56730653     0.08500
H936        H  0.54599787  0.16319144  0.58517048     0.05200
C937        C  0.97021857  0.22271751  0.64882897    -0.20600
C938        C  0.94447261  0.20525799  0.62824023    -0.07100
C939        C  0.97338397  0.18839282  0.60803889     0.13700
C940        C  0.02681510  0.18955440  0.60904492    -0.20600
C941        C  0.05234167  0.20740029  0.62890985    -0.07100
C942        C  0.02361495  0.22415013  0.64929614     0.13700
C943        C  0.04863550  0.24330502  0.67211336    -0.24000
H944        H  0.94841299  0.23558540  0.66450979     0.15000
H945        H  0.04891152  0.17679717  0.59336250     0.15000
C946        C  0.94880777  0.16949438  0.58461665    -0.23900
H947        H  0.02023386  0.25377740  0.68769934     0.05200
H948        H  0.06963323  0.25686028  0.65582475     0.08500
H949        H  0.07532140  0.23420721  0.69053731     0.08500
H950        H  0.92464327  0.17889944  0.56490919     0.08500
H951        H  0.92536394  0.15653996  0.60032907     0.08500
H952        H  0.97756109  0.15833251  0.57034602     0.05200
C953        C  0.77340446  0.23352275  0.00076557    -0.20600
C954        C  0.76933734  0.24786723  0.53375050    -0.07100
C955        C  0.75709160  0.27335052  0.53194878     0.13700
C956        C  0.74034164  0.28241893  0.99857912    -0.20600
C957        C  0.74728049  0.26953290  0.96721808    -0.07100
C958        C  0.76442248  0.24470592  0.96837063     0.13700
C959        C  0.77209455  0.22947966  0.93589733    -0.24000
H960        H  0.78589497  0.21445478  0.00158419     0.15000
H961        H  0.72767142  0.30145701  0.99780134     0.15000
C962        C  0.75336704  0.28933042  0.56399526    -0.23900
H963        H  0.78402838  0.21027906  0.94203816     0.05200
H964        H  0.80244863  0.23782128  0.91950037     0.08500
H965        H  0.73587194  0.22842088  0.92100479     0.08500
H966        H  0.79022888  0.28911248  0.57820986     0.08500
H967        H  0.72233064  0.28252915  0.58119065     0.08500
H968        H  0.74462812  0.30885450  0.55738007     0.05200
C969        C  0.71596091  0.26104501  0.71947904    -0.20600
C970        C  0.74310187  0.23867434  0.72059878    -0.07100
C971        C  0.75791999  0.22901868  0.75340521     0.13700
C972        C  0.74700028  0.24251748  0.78369754    -0.20600
C973        C  0.72197463  0.26545169  0.78234779    -0.07100
C974        C  0.70527295  0.27457565  0.74972264     0.13700
C975        C  0.67603222  0.29843699  0.74620665    -0.24000
H976        H  0.70379982  0.26838431  0.69455955     0.15000
H977        H  0.75934625  0.23530726  0.80865613     0.15000
C978        C  0.78578381  0.20478652  0.75707395    -0.23900
H979        H  0.66406930  0.30193965  0.71889356     0.05200
H980        H  0.70027757  0.31421003  0.75432335     0.08500
H981        H  0.64102286  0.29769596  0.76247428     0.08500
H982        H  0.82321550  0.20580711  0.74362143     0.08500
H983        H  0.76245585  0.18964369  0.74586049     0.08500
H984        H  0.79331526  0.20009165  0.78477386     0.05200
C985        C  0.19108258  0.62817980  0.63525732    -0.20600
C986        C  0.18263930  0.64933957  0.61487513    -0.07100
C987        C  0.13781983  0.65079297  0.59436575     0.13700
C988        C  0.10180888  0.63172297  0.59625681    -0.20600
C989        C  0.10910418  0.61104489  0.61778140    -0.07100
C990        C  0.15503663  0.60900688  0.63702513     0.13700
C991        C  0.16690378  0.58674989  0.65923601    -0.24000
H992        H  0.22574156  0.62683056  0.65052202     0.15000
H993        H  0.06716775  0.63321335  0.58100636     0.15000
C994        C  0.12766149  0.67203044  0.56982587    -0.23900
H995        H  0.20548526  0.58794160  0.67104142     0.05200
H996        H  0.16568864  0.56976847  0.64305997     0.08500
H997        H  0.13897551  0.58529012  0.68087880     0.08500
H998        H  0.15994803  0.67405320  0.55128833     0.08500
H999        H  0.12235908  0.68938364  0.58473112     0.08500
H1000       H  0.09247843  0.66910115  0.55426875     0.05200
C1001       C  0.79955953  0.63283767  0.60475198    -0.20600
C1002       C  0.80105298  0.64961777  0.63261296    -0.07100
C1003       C  0.83711847  0.64595199  0.65958246     0.13700
C1004       C  0.87226804  0.62655070  0.65683637    -0.20600
C1005       C  0.87266861  0.61058315  0.62802136    -0.07100
C1006       C  0.83488556  0.61344742  0.60195757     0.13700
C1007       C  0.83216077  0.59680497  0.57054961    -0.24000
H1008       H  0.77164119  0.63541316  0.58425507     0.15000
H1009       H  0.90037441  0.62413400  0.67724586     0.15000
C1010       C  0.83910579  0.66218377  0.69148281    -0.23900
H1011       H  0.80050458  0.60204902  0.55281171     0.05200
H1012       H  0.82546234  0.57744630  0.57894917     0.08500
H1013       H  0.86822684  0.59802814  0.55546934     0.08500
H1014       H  0.80127743  0.66235180  0.70451505     0.08500
H1015       H  0.85032149  0.68125114  0.68412823     0.08500
H1016       H  0.86754077  0.65547522  0.71072507     0.05200
C1017       C  0.14462579  0.40095137  0.89803071    -0.20600
C1018       C  0.11132472  0.40306994  0.86961720    -0.07100
C1019       C  0.11512461  0.38609439  0.84172892     0.13700
C1020       C  0.15258744  0.36767879  0.84289102    -0.20600
C1021       C  0.18568927  0.36538067  0.87138435    -0.07100
C1022       C  0.18190871  0.38233875  0.89929146     0.13700
C1023       C  0.21532180  0.38031543  0.93110012    -0.24000
H1024       H  0.14111128  0.41384099  0.91948997     0.15000
H1025       H  0.15512935  0.35458424  0.82160102     0.15000
C1026       C  0.07876920  0.38572229  0.81128226    -0.23900
H1027       H  0.20537215  0.39439949  0.95099210     0.05200
H1028       H  0.25583844  0.38318407  0.92376362     0.08500
H1029       H  0.21066625  0.36180039  0.94318475     0.08500
H1030       H  0.10024148  0.38898758  0.78677057     0.08500
H1031       H  0.04799697  0.39962138  0.81308568     0.08500
H1032       H  0.06014564  0.36732415  0.80978310     0.05200
C1033       C  0.84073924  0.40290872  0.89016097    -0.20600
C1034       C  0.88311989  0.40055552  0.86803188    -0.07100
C1035       C  0.88822231  0.37897136  0.84751358     0.13700
C1036       C  0.85102452  0.36041989  0.84990933    -0.20600
C1037       C  0.80861016  0.36273751  0.87206394    -0.07100
C1038       C  0.80338366  0.38438961  0.89243242     0.13700
C1039       C  0.75953917  0.38800358  0.91733410    -0.24000
H1040       H  0.83685893  0.41937302  0.90595607     0.15000
H1041       H  0.85524717  0.34388863  0.83429392     0.15000
C1042       C  0.93341730  0.37479534  0.82390583    -0.23900
H1043       H  0.76285819  0.40561169  0.93197836     0.05200
H1044       H  0.75872409  0.37270244  0.93661614     0.08500
H1045       H  0.72304079  0.38858085  0.90274164     0.08500
H1046       H  0.96918672  0.37561232  0.83931464     0.08500
H1047       H  0.93417993  0.38900703  0.80305399     0.08500
H1048       H  0.93193053  0.35644852  0.81103013     0.05200
C1049       C  0.04002850  0.51775381  0.01008006    -0.20600
C1050       C  0.99598070  0.51992032  0.52936269    -0.07100
C1051       C  0.95137440  0.51073078  0.51305334     0.13700
C1052       C  0.95131217  0.49944600  0.97977469    -0.20600
C1053       C  0.99782856  0.49670126  0.96193044    -0.07100
C1054       C  0.04276024  0.50641628  0.97719009     0.13700
C1055       C  0.09365018  0.50548942  0.95891644    -0.24000
H1056       H  0.07457684  0.52500576  0.02166622     0.15000
H1057       H  0.92092442  0.49195016  0.46839658     0.15000
C1058       C  0.89925056  0.51329234  0.52930712    -0.23900
H1059       H  0.12378978  0.51522262  0.97388516     0.05200
H1060       H  0.09068407  0.51456612  0.93303883     0.08500
H1061       H  0.10609313  0.48603566  0.95573692     0.08500
H1062       H  0.89042450  0.53311958  0.53362859     0.08500
H1063       H  0.89788579  0.50311025  0.55439887     0.08500
H1064       H  0.86882055  0.50560919  0.51237890     0.05200
C1065       C  0.94355389  0.51409043  0.73035938    -0.20600
C1066       C  0.99042820  0.52013622  0.71472329    -0.11900
C1067       C  0.03602197  0.51567820  0.73347487     0.13700
C1068       C  0.03346364  0.50471412  0.76658772    -0.20600
C1069       C  0.98675676  0.49798203  0.78187956    -0.07100
C1070       C  0.94097674  0.50311150  0.76355715     0.13700
C1071       C  0.88916409  0.49738336  0.77861305    -0.24000
H1072       H  0.90849069  0.51790629  0.71640952     0.15000
H1073       H  0.06865499  0.50103909  0.78044711     0.15000
C1074       C  0.08766041  0.52286612  0.71937933    -0.23900
H1075       H  0.85787050  0.50370336  0.76126963     0.05200
H1076       H  0.88454573  0.50690459  0.80402435     0.08500
H1077       H  0.88471163  0.47714842  0.78209616     0.08500
H1078       H  0.08855567  0.54299752  0.71381429     0.08500
H1079       H  0.09594174  0.51231717  0.69526314     0.08500
H1080       H  0.11870369  0.51883611  0.73821544     0.05200
loop_ 
_geom_bond_atom_site_label_1 
_geom_bond_atom_site_label_2 
_geom_bond_distance 
_geom_bond_site_symmetry_2 
_ccdc_geom_bond_type 
In1           O3   2.264       .  S
In1           O4   2.249   1_455  S
In1          O12   2.259   1_455  S
In1           O6   2.256       .  S
In1           O8   2.247       .  S
In1           O9   2.250   1_455  S
In1          O10   2.250       .  S
In1          O13   2.244   1_455  S
C2            O8   1.259       .  A
C2           O10   1.260       .  A
C2          C478   1.473       .  S
O3           C11   1.260       .  A
O4           C11   1.260   1_655  A
C5           O12   1.259       .  A
C5            O6   1.261   1_655  A
C5          C529   1.494       .  S
C7            O9   1.260       .  A
C7           O13   1.259       .  A
C7          C494   1.485       .  S
C11         C513   1.494       .  S
In14         O16   2.262       .  S
In14         O17   2.252   1_655  S
In14         O25   2.258       .  S
In14         O19   2.254   1_655  S
In14         O21   2.244   1_655  S
In14         O22   2.246       .  S
In14         O23   2.232   1_655  S
In14         O26   2.234       .  S
C15          O21   1.261       .  A
C15          O23   1.262       .  A
C15         C449   1.486       .  S
O16          C24   1.259       .  A
O17          C24   1.256   1_455  A
C18          O25   1.258       .  A
C18          O19   1.259   1_655  A
C18         C526   1.492       .  S
C20          O22   1.261       .  A
C20          O26   1.261       .  A
C20         C465   1.486       .  S
C24         C510   1.490       .  S
In27         O29   2.230       .  S
In27         O30   2.251       .  S
In27         O38   2.246       .  S
In27         O32   2.236       .  S
In27         O34   2.236       .  S
In27         O35   2.237       .  S
In27         O36   2.248       .  S
In27         O39   2.252       .  S
C28          O34   1.262       .  A
C28          O36   1.262       .  A
C28         C430   1.490       .  S
O29          C37   1.260       .  A
O30          C37   1.260       .  A
C31          O38   1.260       .  A
C31          O32   1.258       .  A
C31         C414   1.482       .  S
C33          O35   1.258       .  A
C33          O39   1.259       .  A
C33         C398   1.484       .  S
C37         C385   1.484       .  S
In40         O42   2.236       .  S
In40         O43   2.254       .  S
In40         O51   2.256       .  S
In40         O45   2.239       .  S
In40         O47   2.230       .  S
In40         O48   2.254       .  S
In40         O49   2.251       .  S
In40         O52   2.229       .  S
C41          O47   1.259       .  A
C41          O49   1.262       .  A
C41         C417   1.487       .  S
O42          C50   1.260       .  A
O43          C50   1.261       .  A
C44          O51   1.261       .  A
C44          O45   1.260       .  A
C44         C433   1.489       .  S
C46          O48   1.261       .  A
C46          O52   1.257       .  A
C46         C366   1.483       .  S
C50         C497   1.484       .  S
In53         O55   2.229       .  S
In53         O56   2.258       .  S
In53         O64   2.232       .  S
In53         O58   2.226       .  S
In53         O60   2.233       .  S
In53         O61   2.248       .  S
In53         O62   2.250       .  S
In53         O65   2.235       .  S
C54          O60   1.257       .  A
C54          O62   1.259       .  A
C54         C350   1.481       .  S
O55          C63   1.257       .  A
O56          C63   1.261       .  A
C57          O64   1.262       .  A
C57          O58   1.261       .  A
C57         C334   1.480       .  S
C59          O61   1.261       .  A
C59          O65   1.257       .  A
C59         C401   1.478       .  S
C63         C318   1.485       .  S
In66         O68   2.245       .  S
In66         O69   2.246       .  S
In66         O77   2.234       .  S
In66         O71   2.245       .  S
In66         O73   2.225       .  S
In66         O74   2.247       .  S
In66         O75   2.239       .  S
In66         O78   2.226       .  S
C67          O73   1.261       .  A
C67          O75   1.261       .  A
C67         C337   1.482       .  S
O68          C76   1.259       .  A
O69          C76   1.258       .  A
C70          O77   1.259       .  A
C70          O71   1.261       .  A
C70         C353   1.482       .  S
C72          O74   1.260       .  A
C72          O78   1.259       .  A
C72         C369   1.482       .  S
C76         C481   1.478       .  S
In79         O81   2.255       .  S
In79         O82   2.255       .  S
In79         O90   2.255       .  S
In79         O84   2.246       .  S
In79         O86   2.229       .  S
In79         O87   2.253       .  S
In79         O88   2.252       .  S
In79         O91   2.223       .  S
C80          O86   1.258       .  A
C80          O88   1.263       .  A
C80         C273   1.482       .  S
O81          C89   1.257       .  A
O82          C89   1.256       .  A
C83          O90   1.258       .  A
C83          O84   1.255       .  A
C83         C289   1.485       .  S
C85          O87   1.263       .  A
C85          O91   1.259       .  A
C85         C254   1.483       .  S
C89         C302   1.491       .  S
In92         O94   2.251       .  S
In92         O95   2.252       .  S
In92        O103   2.235       .  S
In92         O97   2.258       .  S
In92         O99   2.254       .  S
In92        O100   2.246       .  S
In92        O101   2.224       .  S
In92        O104   2.230       .  S
C93          O99   1.262       .  A
C93         O101   1.260       .  A
C93         C321   1.481       .  S
O94         C102   1.258       .  A
O95         C102   1.258       .  A
C96         O103   1.257       .  A
C96          O97   1.262       .  A
C96         C286   1.488       .  S
C98         O100   1.262       .  A
C98         O104   1.259       .  A
C98         C382   1.481       .  S
C102        C305   1.489       .  S
In105       O107   2.230       .  S
In105       O108   2.250       .  S
In105       O116   2.250       .  S
In105       O110   2.219       .  S
In105       O112   2.235       .  S
In105       O113   2.244       .  S
In105       O114   2.247       .  S
In105       O117   2.219       .  S
C106        O112   1.258       .  A
C106        O114   1.261       .  A
C106        C222   1.486       .  S
O107        C115   1.257       .  A
O108        C115   1.261       .  A
C109        O116   1.263       .  A
C109        O110   1.260       .  A
C109        C241   1.484       .  S
C111        O113   1.262       .  A
C111        O117   1.257       .  A
C111        C206   1.477       .  S
C115        C462   1.481       .  S
In118       O120   2.223       .  S
In118       O121   2.255       .  S
In118       O129   2.244       .  S
In118       O123   2.215       .  S
In118       O125   2.238       .  S
In118       O126   2.254       .  S
In118       O127   2.237       .  S
In118       O130   2.237       .  S
C119        O125   1.257       .  A
C119        O127   1.262       .  A
C119        C238   1.482       .  S
O120        C128   1.260       .  A
O121        C128   1.262       .  A
C122        O129   1.262       .  A
C122        O123   1.257       .  A
C122        C225   1.482       .  S
C124        O126   1.262       .  A
C124        O130   1.257       .  A
C124        C190   1.482       .  S
C128        C257   1.487       .  S
In131       O133   2.221       .  S
In131       O134   2.263       .  S
In131       O142   2.232       .  S
In131       O136   2.231       .  S
In131       O138   2.225       .  S
In131       O139   2.247       .  S
In131       O140   2.250       .  S
In131       O143   2.220       .  S
C132        O138   1.257       .  A
C132        O140   1.262       .  A
C132        C174   1.483       .  S
O133        C141   1.255       .  A
O134        C141   1.262       .  A
C135        O142   1.261       .  A
C135        O136   1.261       .  A
C135        C158   1.482       .  S
C137        O139   1.262       .  A
C137        O143   1.259       .  A
C137        C209   1.480       .  S
C141        C446   1.483       .  S
In144       O146   2.235       .  S
In144       O147   2.258       .  S
In144       O155   2.242       .  S
In144       O149   2.235       .  S
In144       O151   2.212       .  S
In144       O152   2.250       .  S
In144       O153   2.255       .  S
In144       O156   2.235       .  S
C145        O151   1.259       .  A
C145        O153   1.263       .  A
C145        C161   1.484       .  S
O146        C154   1.256       .  A
O147        C154   1.261       .  A
C148        O155   1.261       .  A
C148        O149   1.257       .  A
C148        C177   1.484       .  S
C150        O152   1.261       .  A
C150        O156   1.259       .  A
C150        C193   1.488       .  S
C154        C270   1.484       .  S
C157        C158   1.407       .  A
C157        C702   1.404   1_554  A
C157        H164   1.084       .  S
C158        C699   1.415   1_554  A
C159        C160   1.399       .  A
C159        C698   1.414       .  A
C159        C166   1.509       .  S
C160        C161   1.406       .  A
C160        H165   1.084       .  S
C161        C162   1.416       .  A
C162        C697   1.404       .  A
C162        C163   1.508       .  S
C163        H167   1.111       .  S
C163        H168   1.110       .  S
C163        H169   1.110       .  S
C166        H171   1.110       .  S
C166        H172   1.111       .  S
C166        H710   1.111       .  S
H170        C706   1.111   1_554  S
C173        C174   1.404       .  A
C173        C178   1.404       .  A
C173        H180   1.084       .  S
C174        C175   1.417       .  A
C175        C176   1.401       .  A
C175        C182   1.509       .  S
C176        C177   1.403       .  A
C176        H181   1.084       .  S
C177        C178   1.418       .  A
C178        C179   1.508       .  S
C179        H183   1.111       .  S
C179        H184   1.110       .  S
C179        H185   1.110       .  S
C182        H186   1.111       .  S
C182        H187   1.109       .  S
C182        H188   1.111       .  S
C189        C190   1.403       .  A
C189        C194   1.405   1_655  A
C189        H196   1.084       .  S
C190        C191   1.416       .  A
C191        C192   1.402   1_655  A
C191        C198   1.509       .  S
C192        C193   1.406       .  A
C192        H197   1.084       .  S
C193        C194   1.418       .  A
C194        C195   1.507       .  S
C195        H199   1.111       .  S
C195        H200   1.110       .  S
C195        H201   1.110       .  S
C198        H202   1.110       .  S
C198        H203   1.111       .  S
C198        H204   1.111       .  S
C205        C206   1.404       .  A
C205        C210   1.403       .  A
C205        H212   1.084       .  S
C206        C207   1.416       .  A
C207        C208   1.399       .  A
C207        C214   1.510       .  S
C208        C209   1.404       .  A
C208        H213   1.084       .  S
C209        C210   1.416       .  A
C210        C211   1.507       .  S
C211        H215   1.111       .  S
C211        H216   1.110       .  S
C211        H217   1.110       .  S
C214        H218   1.110       .  S
C214        H219   1.111       .  S
C214        H220   1.111       .  S
C221        C222   1.405       .  A
C221        C766   1.402   1_554  A
C221        H228   1.083       .  S
C222        C223   1.418       .  A
C223        C224   1.402   1_554  A
C223        C230   1.509       .  S
C224        C765   1.403       .  A
C224        H229   1.083       .  S
C225        C226   1.418       .  A
C225        C764   1.404       .  A
C226        C761   1.400       .  A
C226        C227   1.510       .  S
C227        H231   1.111       .  S
C227        H232   1.111       .  S
C227        H233   1.110       .  S
C230        H234   1.110       .  S
C230        H235   1.110       .  S
C230        H236   1.111       .  S
C237        C238   1.402       .  A
C237        C242   1.399       .  A
C237        H244   1.083       .  S
C238        C239   1.418       .  A
C239        C240   1.405       .  A
C239        C246   1.509       .  S
C240        C241   1.406       .  A
C240        H245   1.084       .  S
C241        C242   1.418       .  A
C242        C243   1.509       .  S
C243        H247   1.111       .  S
C243        H248   1.110       .  S
C243        H249   1.110       .  S
C246        H250   1.111       .  S
C246        H251   1.110       .  S
C246        H252   1.111       .  S
C253        C254   1.406       .  A
C253        C258   1.407       .  A
C253        H260   1.083       .  S
C254        C255   1.417       .  A
C255        C256   1.399       .  A
C255        C262   1.510       .  S
C256        C257   1.404       .  A
C256        H261   1.083       .  S
C257        C258   1.418       .  A
C258        C259   1.507       .  S
C259        H263   1.111       .  S
C259        H264   1.110       .  S
C259        H265   1.110       .  S
C262        H266   1.111       .  S
C262        H267   1.110       .  S
C262        H268   1.111       .  S
C269        C270   1.404       .  A
C269        C274   1.404       .  A
C269        H276   1.084       .  S
C270        C271   1.418       .  A
C271        C272   1.403       .  A
C271        C278   1.509       .  S
C272        C273   1.403       .  A
C272        H277   1.084       .  S
C273        C274   1.417       .  A
C274        C275   1.509       .  S
C275        H279   1.111       .  S
C275        H280   1.111       .  S
C275        H281   1.110       .  S
C278        H282   1.111       .  S
C278        H283   1.110       .  S
C278        H284   1.111       .  S
C285        C286   1.406       .  A
C285        C830   1.406   1_544  A
C285        H292   1.084       .  S
C286        C287   1.418       .  A
C287        C828   1.402   1_554  A
C287        C294   1.509       .  S
C288        C289   1.402   1_545  A
C288        C827   1.403       .  A
C288        H293   1.084       .  S
C289        C290   1.418       .  A
C290        C825   1.405   1_565  A
C290        C291   1.509       .  S
C291        H296   1.111       .  S
C291        H297   1.110       .  S
C291        H835   1.111       .  S
C294        H298   1.111       .  S
C294        H299   1.109       .  S
C294        H840   1.111       .  S
H295        C831   1.111       .  S
H300        C834   1.111       .  S
C301        C302   1.406       .  A
C301        C306   1.405   1_565  A
C301        H308   1.084       .  S
C302        C303   1.418   1_565  A
C303        C304   1.405       .  A
C303        C310   1.508       .  S
C304        C305   1.405       .  A
C304        H309   1.084       .  S
C305        C306   1.418       .  A
C306        C307   1.508       .  S
C307        H311   1.111   1_545  S
C307        H312   1.111       .  S
C307        H313   1.110   1_545  S
C310        H314   1.110       .  S
C310        H315   1.110   1_545  S
C310        H316   1.111       .  S
C317        C318   1.407       .  A
C317        C322   1.406       .  A
C317        H324   1.084       .  S
C318        C319   1.418       .  A
C319        C320   1.400       .  A
C319        C326   1.509       .  S
C320        C321   1.403       .  A
C320        H325   1.084       .  S
C321        C322   1.414       .  A
C322        C323   1.507       .  S
C323        H327   1.111       .  S
C323        H328   1.110       .  S
C323        H329   1.110       .  S
C326        H330   1.111       .  S
C326        H331   1.110       .  S
C326        H332   1.111       .  S
C333        C334   1.406       .  A
C333        C338   1.403       .  A
C333        H340   1.084       .  S
C334        C335   1.415       .  A
C335        C336   1.400       .  A
C335        C342   1.508       .  S
C336        C337   1.404       .  A
C336        H341   1.084       .  S
C337        C338   1.416       .  A
C338        C339   1.508       .  S
C339        H343   1.111       .  S
C339        H344   1.110       .  S
C339        H345   1.110       .  S
C342        H346   1.110       .  S
C342        H347   1.110       .  S
C342        H348   1.111       .  S
C349        C350   1.403       .  A
C349        C354   1.401   1_554  A
C349        H356   1.084       .  S
C350        C351   1.415   1_554  A
C351        C892   1.405       .  A
C351        C358   1.508       .  S
C352        C353   1.405       .  A
C352        C891   1.404       .  A
C352        H357   1.084       .  S
C353        C894   1.417       .  A
C354        C893   1.418       .  A
C354        C355   1.509   1_556  S
C355        H359   1.111       .  S
C355        H360   1.110   1_554  S
C355        H361   1.110   1_554  S
C358        H362   1.111   1_556  S
C358        H363   1.110   1_556  S
C358        H904   1.111       .  S
H364        C898   1.111       .  S
C365        C366   1.405       .  A
C365        C370   1.405       .  A
C365        H372   1.084       .  S
C366        C367   1.417       .  A
C367        C368   1.400       .  A
C367        C374   1.509       .  S
C368        C369   1.404       .  A
C368        H373   1.084       .  S
C369        C370   1.416       .  A
C370        C371   1.508       .  S
C371        H375   1.111       .  S
C371        H376   1.110       .  S
C371        H377   1.110       .  S
C374        H378   1.110       .  S
C374        H379   1.110       .  S
C374        H380   1.111       .  S
C381        C382   1.404       .  A
C381        C386   1.404       .  A
C381        H388   1.084       .  S
C382        C383   1.417       .  A
C383        C384   1.401       .  A
C383        C390   1.509       .  S
C384        C385   1.404       .  A
C384        H389   1.083       .  S
C385        C386   1.417       .  A
C386        C387   1.507       .  S
C387        H391   1.111       .  S
C387        H392   1.110       .  S
C387        H393   1.110       .  S
C390        H394   1.111       .  S
C390        H395   1.110       .  S
C390        H396   1.111       .  S
C397        C398   1.405       .  A
C397        C402   1.401   1_655  A
C397        H404   1.084       .  S
C398        C399   1.418       .  A
C399        C400   1.404   1_655  A
C399        C406   1.508       .  S
C400        C401   1.402       .  A
C400        H405   1.084       .  S
C401        C402   1.414       .  A
C402        C403   1.509       .  S
C403        H407   1.111       .  S
C403        H408   1.109       .  S
C403        H409   1.110       .  S
C406        H410   1.110       .  S
C406        H411   1.110       .  S
C406        H412   1.111       .  S
C413        C418   1.402       .  A
C413        C954   1.404       .  A
C413        H420   1.083       .  S
C414        C415   1.416       .  A
C414        C953   1.404       .  A
C415        C956   1.403   1_554  A
C415        C422   1.508       .  S
C416        C417   1.405       .  A
C416        C955   1.406       .  A
C416        H421   1.083       .  S
C417        C418   1.418       .  A
C418        C419   1.509       .  S
C419        H423   1.111       .  S
C419        H424   1.110       .  S
C419        H425   1.110       .  S
C422        H426   1.111       .  S
C422        H427   1.110       .  S
C422        H428   1.111       .  S
C429        C430   1.407       .  A
C429        C434   1.405       .  A
C429        H436   1.084       .  S
C430        C431   1.417       .  A
C431        C432   1.404       .  A
C431        C438   1.508       .  S
C432        C433   1.406       .  A
C432        H437   1.084       .  S
C433        C434   1.417       .  A
C434        C435   1.508       .  S
C435        H439   1.111       .  S
C435        H440   1.110       .  S
C435        H441   1.110       .  S
C438        H442   1.110       .  S
C438        H443   1.110       .  S
C438        H444   1.111       .  S
C445        C446   1.404       .  A
C445        C450   1.406       .  A
C445        H452   1.084       .  S
C446        C447   1.417       .  A
C447        C448   1.400       .  A
C447        C454   1.510       .  S
C448        C449   1.404       .  A
C448        H453   1.084       .  S
C449        C450   1.419       .  A
C450        C451   1.508       .  S
C451        H455   1.111       .  S
C451        H456   1.110       .  S
C451        H457   1.110       .  S
C454        H458   1.111       .  S
C454        H459   1.109       .  S
C454        H460   1.111       .  S
C461        C462   1.404       .  A
C461        C466   1.404       .  A
C461        H468   1.084       .  S
C462        C463   1.416       .  A
C463        C464   1.401       .  A
C463        C470   1.509       .  S
C464        C465   1.405       .  A
C464        H469   1.084       .  S
C465        C466   1.418       .  A
C466        C467   1.508       .  S
C467        H471   1.111       .  S
C467        H472   1.110       .  S
C467        H473   1.110       .  S
C470        H474   1.111       .  S
C470        H475   1.109       .  S
C470        H476   1.111       .  S
C477        C478   1.402       .  A
C477        C482   1.405       .  A
C477        H484   1.084       .  S
C478        C479   1.416       .  A
C479        C480   1.401       .  A
C479        C486   1.509       .  S
C480        C481   1.402       .  A
C480        H485   1.085       .  S
C481        C482   1.415       .  A
C482        C483   1.507       .  S
C483        H487   1.111       .  S
C483        H488   1.110       .  S
C483        H489   1.111       .  S
C486        H490   1.110       .  S
C486        H491   1.106       .  S
C486        H492   1.111       .  S
C493        C494   1.406       .  A
C493        C498   1.405       .  A
C493        H500   1.083       .  S
C494        C495   1.417       .  A
C495        C496   1.402       .  A
C495        C502   1.508       .  S
C496        C497   1.404       .  A
C496        H501   1.084       .  S
C497        C498   1.416       .  A
C498        C499   1.507       .  S
C499        H503   1.111       .  S
C499        H504   1.111       .  S
C499        H505   1.109       .  S
C502        H506   1.110       .  S
C502        H507   1.110       .  S
C502        H508   1.111       .  S
C509        C514   1.408       .  A
C509       C1050   1.408   1_455  A
C509        H516   1.083       .  S
C510        C511   1.417       .  A
C510       C1049   1.406   1_655  A
C511       C1052   1.406   1_554  A
C511        C518   1.508       .  S
C512        C513   1.406   1_655  A
C512       C1051   1.405       .  A
C512       H1057   1.083       .  S
C513        C514   1.418       .  A
C514        C515   1.507       .  S
C515        H519   1.111       .  S
C515        H520   1.111       .  S
C515        H521   1.110       .  S
H517       C1052   1.083       .  S
C518        H522   1.111       .  S
C518        H523   1.110       .  S
C518        H524   1.111       .  S
C525        C526   1.406       .  A
C525        C530   1.408       .  A
C525        H532   1.084       .  S
C526        C527   1.418   1_655  A
C527        C528   1.406       .  A
C527        C534   1.508       .  S
C528        C529   1.406   1_455  A
C528        H533   1.084       .  S
C529        C530   1.419       .  A
C530        C531   1.508       .  S
C531        H535   1.111       .  S
C531        H536   1.110       .  S
C531        H537   1.109       .  S
C534        H538   1.111       .  S
C534        H539   1.110       .  S
C534        H540   1.111       .  S
In541       O543   2.255   1_655  S
In541       O544   2.253       .  S
In541       O552   2.254       .  S
In541       O546   2.249   1_655  S
In541       O548   2.247   1_655  S
In541       O549   2.245       .  S
In541       O550   2.247   1_655  S
In541       O553   2.241       .  S
C542        O548   1.260       .  A
C542        O550   1.260       .  A
C542       C1018   1.473       .  S
O543        C551   1.259   1_455  A
O544        C551   1.260       .  A
C545        O552   1.258       .  A
C545        O546   1.261   1_655  A
C545       C1069   1.491       .  S
C547        O549   1.261       .  A
C547        O553   1.259       .  A
C547       C1034   1.483       .  S
C551       C1053   1.492       .  S
In554       O556   2.255       .  S
In554       O557   2.258   1_655  S
In554       O565   2.255       .  S
In554       O559   2.253   1_655  S
In554       O561   2.241   1_655  S
In554       O562   2.247       .  S
In554       O563   2.233   1_655  S
In554       O566   2.235       .  S
C555        O561   1.261       .  A
C555        O563   1.262       .  A
C555        C989   1.485       .  S
O556        C564   1.259       .  A
O557        C564   1.257   1_455  A
C558        O565   1.258       .  A
C558        O559   1.259   1_655  A
C558       C1066   1.489       .  S
C560        O562   1.261       .  A
C560        O566   1.260       .  A
C560       C1005   1.485       .  S
C564       C1050   1.493       .  S
In567       O569   2.228       .  S
In567       O570   2.251       .  S
In567       O578   2.236       .  S
In567       O572   2.246       .  S
In567       O574   2.229       .  S
In567       O575   2.237       .  S
In567       O576   2.242       .  S
In567       O579   2.241       .  S
C568        O574   1.262       .  A
C568        O576   1.261       .  A
C568        C970   1.486       .  S
O569        C577   1.260       .  A
O570        C577   1.260       .  A
C571        O578   1.261       .  A
C571        O572   1.259       .  A
C571        C954   1.487       .  S
C573        O575   1.259       .  A
C573        O579   1.259       .  A
C573        C938   1.485       .  S
C577        C925   1.485       .  S
In580       O582   2.239       .  S
In580       O583   2.251       .  S
In580       O591   2.240       .  S
In580       O585   2.237       .  S
In580       O587   2.230       .  S
In580       O588   2.260       .  S
In580       O589   2.243       .  S
In580       O592   2.221       .  S
C581        O587   1.259       .  A
C581        O589   1.262       .  A
C581        C957   1.483       .  S
O582        C590   1.259       .  A
O583        C590   1.260       .  A
C584        O591   1.260       .  A
C584        O585   1.260       .  A
C584        C973   1.484       .  S
C586        O588   1.262       .  A
C586        O592   1.257       .  A
C586        C906   1.484       .  S
C590       C1037   1.485       .  S
In593       O595   2.231       .  S
In593       O596   2.261       .  S
In593       O604   2.238       .  S
In593       O598   2.226       .  S
In593       O600   2.236       .  S
In593       O601   2.249       .  S
In593       O602   2.250       .  S
In593       O605   2.237       .  S
C594        O600   1.258       .  A
C594        O602   1.259       .  A
C594        C890   1.481       .  S
O595        C603   1.258       .  A
O596        C603   1.262       .  A
C597        O604   1.262       .  A
C597        O598   1.261       .  A
C597        C874   1.481       .  S
C599        O601   1.261       .  A
C599        O605   1.257       .  A
C599        C941   1.479       .  S
C603        C858   1.486       .  S
In606       O608   2.241       .  S
In606       O609   2.248       .  S
In606       O617   2.235       .  S
In606       O611   2.250       .  S
In606       O613   2.233       .  S
In606       O614   2.252       .  S
In606       O615   2.237       .  S
In606       O618   2.223       .  S
C607        O613   1.261       .  A
C607        O615   1.261       .  A
C607        C877   1.483       .  S
O608        C616   1.259       .  A
O609        C616   1.258       .  A
C610        O617   1.259       .  A
C610        O611   1.261       .  A
C610        C893   1.485       .  S
C612        O614   1.260       .  A
C612        O618   1.259       .  A
C612        C909   1.481       .  S
C616       C1021   1.478       .  S
In619       O621   2.270       .  S
In619       O622   2.244       .  S
In619       O630   2.243       .  S
In619       O624   2.259       .  S
In619       O626   2.232       .  S
In619       O627   2.253       .  S
In619       O628   2.248       .  S
In619       O631   2.220       .  S
C620        O626   1.260       .  A
C620        O628   1.263       .  A
C620        C813   1.485       .  S
O621        C629   1.260       .  A
O622        C629   1.256       .  A
C623        O630   1.257       .  A
C623        O624   1.257       .  A
C623        C829   1.486       .  S
C625        O627   1.263       .  A
C625        O631   1.258       .  A
C625        C794   1.479       .  S
C629        C842   1.489       .  S
In632       O634   2.252       .  S
In632       O635   2.254       .  S
In632       O643   2.234       .  S
In632       O637   2.265       .  S
In632       O639   2.266       .  S
In632       O640   2.242       .  S
In632       O641   2.229       .  S
In632       O644   2.225       .  S
C633        O639   1.263       .  A
C633        O641   1.260       .  A
C633        C861   1.488       .  S
O634        C642   1.257       .  A
O635        C642   1.260       .  A
C636        O643   1.255       .  A
C636        O637   1.262       .  A
C636        C826   1.489       .  S
C638        O640   1.262       .  A
C638        O644   1.259       .  A
C638        C922   1.476       .  S
C642        C845   1.491       .  S
In645       O647   2.234       .  S
In645       O648   2.253       .  S
In645       O656   2.243       .  S
In645       O650   2.221       .  S
In645       O652   2.239       .  S
In645       O653   2.249       .  S
In645       O654   2.238       .  S
In645       O657   2.219       .  S
C646        O652   1.257       .  A
C646        O654   1.260       .  A
C646        C762   1.484       .  S
O647        C655   1.256       .  A
O648        C655   1.260       .  A
C649        O656   1.263       .  A
C649        O650   1.260       .  A
C649        C781   1.484       .  S
C651        O653   1.262       .  A
C651        O657   1.257       .  A
C651        C746   1.477       .  S
C655       C1002   1.483       .  S
In658       O660   2.221       .  S
In658       O661   2.258       .  S
In658       O669   2.240       .  S
In658       O663   2.223       .  S
In658       O665   2.235       .  S
In658       O666   2.253       .  S
In658       O667   2.241       .  S
In658       O670   2.230       .  S
C659        O665   1.256       .  A
C659        O667   1.261       .  A
C659        C778   1.482       .  S
O660        C668   1.259       .  A
O661        C668   1.262       .  A
C662        O669   1.263       .  A
C662        O663   1.258       .  A
C662        C765   1.483       .  S
C664        O666   1.263       .  A
C664        O670   1.258       .  A
C664        C730   1.481       .  S
C668        C797   1.486       .  S
In671       O673   2.227       .  S
In671       O674   2.261       .  S
In671       O682   2.237       .  S
In671       O676   2.229       .  S
In671       O678   2.226       .  S
In671       O679   2.253       .  S
In671       O680   2.249       .  S
In671       O683   2.217       .  S
C672        O678   1.257       .  A
C672        O680   1.262       .  A
C672        C714   1.481       .  S
O673        C681   1.256       .  A
O674        C681   1.261       .  A
C675        O682   1.262       .  A
C675        O676   1.260       .  A
C675        C698   1.482       .  S
C677        O679   1.262       .  A
C677        O683   1.259       .  A
C677        C749   1.482       .  S
C681        C986   1.483       .  S
In684       O686   2.237       .  S
In684       O687   2.254       .  S
In684       O695   2.242       .  S
In684       O689   2.235       .  S
In684       O691   2.210       .  S
In684       O692   2.256       .  S
In684       O693   2.255       .  S
In684       O696   2.232       .  S
C685        O691   1.260       .  A
C685        O693   1.263       .  A
C685        C701   1.484       .  S
O686        C694   1.257       .  A
O687        C694   1.262       .  A
C688        O695   1.261       .  A
C688        O689   1.257       .  A
C688        C717   1.482       .  S
C690        O692   1.261       .  A
C690        O696   1.258       .  A
C690        C733   1.488       .  S
C694        C810   1.485       .  S
C697        C698   1.406       .  A
C697        H704   1.084       .  S
C699        C700   1.399       .  A
C699        C706   1.509       .  S
C700        C701   1.405       .  A
C700        H705   1.084       .  S
C701        C702   1.416       .  A
C702        C703   1.508   1_556  S
C703        H707   1.111       .  S
C703        H708   1.110   1_554  S
C703        H709   1.110   1_554  S
C706        H711   1.110       .  S
C706        H712   1.111       .  S
C713        C714   1.404       .  A
C713        C718   1.403       .  A
C713        H720   1.084       .  S
C714        C715   1.417       .  A
C715        C716   1.401       .  A
C715        C722   1.509       .  S
C716        C717   1.403       .  A
C716        H721   1.084       .  S
C717        C718   1.418       .  A
C718        C719   1.508       .  S
C719        H723   1.111       .  S
C719        H724   1.110       .  S
C719        H725   1.110       .  S
C722        H726   1.111       .  S
C722        H727   1.109       .  S
C722        H728   1.111       .  S
C729        C730   1.403       .  A
C729        C734   1.405   1_655  A
C729        H736   1.084       .  S
C730        C731   1.415       .  A
C731        C732   1.401   1_655  A
C731        C738   1.509       .  S
C732        C733   1.406       .  A
C732        H737   1.084       .  S
C733        C734   1.418       .  A
C734        C735   1.507       .  S
C735        H739   1.111       .  S
C735        H740   1.110       .  S
C735        H741   1.110       .  S
C738        H742   1.110       .  S
C738        H743   1.111       .  S
C738        H744   1.111       .  S
C745        C746   1.404       .  A
C745        C750   1.405       .  A
C745        H752   1.084       .  S
C746        C747   1.415       .  A
C747        C748   1.398       .  A
C747        C754   1.510       .  S
C748        C749   1.404       .  A
C748        H753   1.084       .  S
C749        C750   1.417       .  A
C750        C751   1.507       .  S
C751        H755   1.111       .  S
C751        H756   1.110       .  S
C751        H757   1.110       .  S
C754        H758   1.110       .  S
C754        H759   1.111       .  S
C754        H760   1.111       .  S
C761        C762   1.404       .  A
C761        H768   1.083       .  S
C762        C763   1.418       .  A
C763        C764   1.403       .  A
C763        C770   1.508       .  S
C764        H769   1.083       .  S
C765        C766   1.418       .  A
C766        C767   1.509       .  S
C767        H771   1.111       .  S
C767        H772   1.111       .  S
C767        H773   1.110       .  S
C770        H774   1.110       .  S
C770        H775   1.110       .  S
C770        H776   1.111       .  S
C777        C778   1.403       .  A
C777        C782   1.400       .  A
C777        H784   1.083       .  S
C778        C779   1.418       .  A
C779        C780   1.403       .  A
C779        C786   1.509       .  S
C780        C781   1.405       .  A
C780        H785   1.083       .  S
C781        C782   1.418       .  A
C782        C783   1.509       .  S
C783        H787   1.111       .  S
C783        H788   1.110       .  S
C783        H789   1.110       .  S
C786        H790   1.110       .  S
C786        H791   1.110       .  S
C786        H792   1.111       .  S
C793        C794   1.404       .  A
C793        C798   1.407       .  A
C793        H800   1.083       .  S
C794        C795   1.415       .  A
C795        C796   1.398       .  A
C795        C802   1.510       .  S
C796        C797   1.405       .  A
C796        H801   1.083       .  S
C797        C798   1.418       .  A
C798        C799   1.507       .  S
C799        H803   1.111       .  S
C799        H804   1.110       .  S
C799        H805   1.110       .  S
C802        H806   1.111       .  S
C802        H807   1.110       .  S
C802        H808   1.111       .  S
C809        C810   1.403       .  A
C809        C814   1.404       .  A
C809        H816   1.084       .  S
C810        C811   1.418       .  A
C811        C812   1.404       .  A
C811        C818   1.509       .  S
C812        C813   1.404       .  A
C812        H817   1.084       .  S
C813        C814   1.417       .  A
C814        C815   1.508       .  S
C815        H819   1.111       .  S
C815        H820   1.111       .  S
C815        H821   1.110       .  S
C818        H822   1.111       .  S
C818        H823   1.110       .  S
C818        H824   1.111       .  S
C825        C826   1.405       .  A
C825        H832   1.084       .  S
C826        C827   1.420       .  A
C827        C834   1.509       .  S
C828        C829   1.404   1_545  A
C828        H833   1.084   1_545  S
C829        C830   1.418       .  A
C830        C831   1.508       .  S
C831        H836   1.111       .  S
C831        H837   1.110   1_565  S
C834        H838   1.110       .  S
C834        H839   1.110       .  S
C841        C842   1.405       .  A
C841        C846   1.407   1_565  A
C841        H848   1.084       .  S
C842        C843   1.417   1_565  A
C843        C844   1.404       .  A
C843        C850   1.508       .  S
C844        C845   1.405       .  A
C844        H849   1.084       .  S
C845        C846   1.420       .  A
C846        C847   1.508       .  S
C847        H851   1.111       .  S
C847        H852   1.111       .  S
C847        H853   1.110       .  S
C850        H854   1.111       .  S
C850        H855   1.109   1_545  S
C850        H856   1.111       .  S
C857        C858   1.406       .  A
C857        C862   1.409       .  A
C857        H864   1.084       .  S
C858        C859   1.417       .  A
C859        C860   1.401       .  A
C859        C866   1.509       .  S
C860        C861   1.404       .  A
C860        H865   1.084       .  S
C861        C862   1.417       .  A
C862        C863   1.507       .  S
C863        H867   1.111       .  S
C863        H868   1.110       .  S
C863        H869   1.110       .  S
C866        H870   1.111       .  S
C866        H871   1.110       .  S
C866        H872   1.111       .  S
C873        C874   1.404       .  A
C873        C878   1.402       .  A
C873        H880   1.084       .  S
C874        C875   1.415       .  A
C875        C876   1.402       .  A
C875        C882   1.508       .  S
C876        C877   1.405       .  A
C876        H881   1.084       .  S
C877        C878   1.417       .  A
C878        C879   1.509       .  S
C879        H883   1.111       .  S
C879        H884   1.110       .  S
C879        H885   1.110       .  S
C882        H886   1.110       .  S
C882        H887   1.110       .  S
C882        H888   1.111       .  S
C889        C890   1.404       .  A
C889        C894   1.402       .  A
C889        H896   1.084       .  S
C890        C891   1.415       .  A
C891        C898   1.508       .  S
C892        C893   1.406       .  A
C892        H897   1.084       .  S
C894        C895   1.509       .  S
C895        H899   1.111       .  S
C895        H900   1.110       .  S
C895        H901   1.111       .  S
C898        H902   1.111       .  S
C898        H903   1.109       .  S
C905        C906   1.407       .  A
C905        C910   1.406       .  A
C905        H912   1.084       .  S
C906        C907   1.418       .  A
C907        C908   1.398       .  A
C907        C914   1.510       .  S
C908        C909   1.402       .  A
C908        H913   1.084       .  S
C909        C910   1.416       .  A
C910        C911   1.507       .  S
C911        H915   1.111       .  S
C911        H916   1.110       .  S
C911        H917   1.111       .  S
C914        H918   1.110       .  S
C914        H919   1.110       .  S
C914        H920   1.111       .  S
C921        C922   1.403       .  A
C921        C926   1.405       .  A
C921        H928   1.084       .  S
C922        C923   1.414       .  A
C923        C924   1.399       .  A
C923        C930   1.510       .  S
C924        C925   1.405       .  A
C924        H929   1.083       .  S
C925        C926   1.419       .  A
C926        C927   1.507       .  S
C927        H931   1.111       .  S
C927        H932   1.110       .  S
C927        H933   1.110       .  S
C930        H934   1.110       .  S
C930        H935   1.110       .  S
C930        H936   1.111       .  S
C937        C938   1.406       .  A
C937        C942   1.402   1_655  A
C937        H944   1.084       .  S
C938        C939   1.418       .  A
C939        C940   1.403   1_655  A
C939        C946   1.508       .  S
C940        C941   1.402       .  A
C940        H945   1.084       .  S
C941        C942   1.415       .  A
C942        C943   1.509       .  S
C943        H947   1.111       .  S
C943        H948   1.109       .  S
C943        H949   1.110       .  S
C946        H950   1.110       .  S
C946        H951   1.110       .  S
C946        H952   1.111       .  S
C953        C958   1.403   1_554  A
C953        H960   1.084       .  S
C954        C955   1.418       .  A
C955        C962   1.508       .  S
C956        C957   1.404       .  A
C956        H961   1.083       .  S
C957        C958   1.418       .  A
C958        C959   1.509       .  S
C959        H963   1.111       .  S
C959        H964   1.110       .  S
C959        H965   1.111       .  S
C962        H966   1.110       .  S
C962        H967   1.110       .  S
C962        H968   1.111       .  S
C969        C970   1.405       .  A
C969        C974   1.402       .  A
C969        H976   1.084       .  S
C970        C971   1.418       .  A
C971        C972   1.404       .  A
C971        C978   1.508       .  S
C972        C973   1.405       .  A
C972        H977   1.084       .  S
C973        C974   1.416       .  A
C974        C975   1.508       .  S
C975        H979   1.111       .  S
C975        H980   1.110       .  S
C975        H981   1.110       .  S
C978        H982   1.110       .  S
C978        H983   1.110       .  S
C978        H984   1.111       .  S
C985        C986   1.404       .  A
C985        C990   1.405       .  A
C985        H992   1.084       .  S
C986        C987   1.417       .  A
C987        C988   1.401       .  A
C987        C994   1.509       .  S
C988        C989   1.404       .  A
C988        H993   1.084       .  S
C989        C990   1.418       .  A
C990        C991   1.508       .  S
C991        H995   1.111       .  S
C991        H996   1.111       .  S
C991        H997   1.110       .  S
C994        H998   1.111       .  S
C994        H999   1.109       .  S
C994       H1000   1.111       .  S
C1001      C1002   1.405       .  A
C1001      C1006   1.404       .  A
C1001      H1008   1.084       .  S
C1002      C1003   1.417       .  A
C1003      C1004   1.401       .  A
C1003      C1010   1.509       .  S
C1004      C1005   1.405       .  A
C1004      H1009   1.084       .  S
C1005      C1006   1.417       .  A
C1006      C1007   1.508       .  S
C1007      H1011   1.111       .  S
C1007      H1012   1.110       .  S
C1007      H1013   1.110       .  S
C1010      H1014   1.111       .  S
C1010      H1015   1.109       .  S
C1010      H1016   1.111       .  S
C1017      C1018   1.402       .  A
C1017      C1022   1.405       .  A
C1017      H1024   1.084       .  S
C1018      C1019   1.415       .  A
C1019      C1020   1.400       .  A
C1019      C1026   1.509       .  S
C1020      C1021   1.402       .  A
C1020      H1025   1.085       .  S
C1021      C1022   1.415       .  A
C1022      C1023   1.507       .  S
C1023      H1027   1.111       .  S
C1023      H1028   1.110       .  S
C1023      H1029   1.111       .  S
C1026      H1030   1.110       .  S
C1026      H1031   1.106       .  S
C1026      H1032   1.111       .  S
C1033      C1034   1.404       .  A
C1033      C1038   1.404       .  A
C1033      H1040   1.083       .  S
C1034      C1035   1.416       .  A
C1035      C1036   1.403       .  A
C1035      C1042   1.508       .  S
C1036      C1037   1.405       .  A
C1036      H1041   1.083       .  S
C1037      C1038   1.416       .  A
C1038      C1039   1.507       .  S
C1039      H1043   1.111       .  S
C1039      H1044   1.110       .  S
C1039      H1045   1.110       .  S
C1042      H1046   1.110       .  S
C1042      H1047   1.110       .  S
C1042      H1048   1.111       .  S
C1049      C1054   1.406   1_554  A
C1049      H1056   1.083       .  S
C1050      C1051   1.418       .  A
C1051      C1058   1.508       .  S
C1052      C1053   1.406       .  A
C1053      C1054   1.418   1_655  A
C1054      C1055   1.508       .  S
C1055      H1059   1.111       .  S
C1055      H1060   1.111       .  S
C1055      H1061   1.109       .  S
C1058      H1062   1.111       .  S
C1058      H1063   1.110       .  S
C1058      H1064   1.111       .  S
C1065      C1066   1.406       .  A
C1065      C1070   1.407       .  A
C1065      H1072   1.084       .  S
C1066      C1067   1.417   1_655  A
C1067      C1068   1.404       .  A
C1067      C1074   1.508       .  S
C1068      C1069   1.405   1_455  A
C1068      H1073   1.084       .  S
C1069      C1070   1.419       .  A
C1070      C1071   1.508       .  S
C1071      H1075   1.111       .  S
C1071      H1076   1.110       .  S
C1071      H1077   1.110       .  S
C1074      H1078   1.111       .  S
C1074      H1079   1.110       .  S
C1074      H1080   1.111       .  S
