geometry optimzed in LAMMPS
_audit_creation_date              2020-11-30 
_audit_creation_method            'lammps2cif' 
_symmetry_space_group_name_H-M    'P1' 
_symmetry_Int_Tables_number       1 
_symmetry_cell_setting            triclinic 
loop_ 
_symmetry_equiv_pos_as_xyz 
  x,y,z 
_cell_length_a                    45.97341902 
_cell_length_b                    59.992378134559225 
_cell_length_c                    30.74685699623563 
_cell_angle_alpha                 89.3855662439103 
_cell_angle_beta                  90.53315590893794 
_cell_angle_gamma                 89.39950821959918 
loop_ 
_atom_site_label 
_atom_site_type_symbol 
_atom_site_fract_x 
_atom_site_fract_y 
_atom_site_fract_z 
_atom_site_charge 
In1        In  0.08364515  0.56193321  0.12294221     1.36900
C2          C  0.02600974  0.56097586  0.12307438     0.77500
O3          O  0.07964828  0.52891475  0.15420613    -0.60900
O4          O  0.11714435  0.54770714  0.17046017    -0.51900
C5          C  0.10105004  0.54293931  0.04981283     0.70200
O6          O  0.07673326  0.55243856  0.05407226    -0.46700
C7          C  0.08946072  0.60559735  0.13430634     0.74900
O8          O  0.04073953  0.56391784  0.08927714    -0.58600
O9          O  0.08312745  0.59274016  0.16530975    -0.48700
O10         O  0.04102892  0.55836608  0.15738734    -0.55000
C11         C  0.10353943  0.52955731  0.17449193     0.85100
O12         O  0.11819108  0.54526374  0.08177650    -0.56900
O13         O  0.09751778  0.59574120  0.10041340    -0.60200
In14       In  0.08740071  0.44258891  0.36819092     1.36900
C15         C  0.02978591  0.44480974  0.37593706     0.77500
O16         O  0.08665972  0.45170984  0.29804523    -0.60900
O17         O  0.12588778  0.45723572  0.33286817    -0.51900
C18         C  0.10173589  0.47474921  0.42380356     0.70200
O19         O  0.08085450  0.47605522  0.39706090    -0.46700
C20         C  0.09355904  0.39803973  0.37257894     0.74900
O21         O  0.04300086  0.45135960  0.34250742    -0.58600
O22         O  0.08421742  0.40848449  0.33957919    -0.48700
O23         O  0.04633804  0.43749547  0.40593164    -0.55000
C24         C  0.11145317  0.46035865  0.29819705     0.85100
O25         O  0.11549641  0.45634132  0.42305814    -0.56900
O26         O  0.10319483  0.41050065  0.40216642    -0.60200
In27       In  0.34632639  0.43585475  0.37744988     1.36900
C28         C  0.40391364  0.44028782  0.37854539     0.77500
O29         O  0.34778260  0.46948340  0.40542991    -0.60900
O30         O  0.31406185  0.44856249  0.42771151    -0.51900
C31         C  0.32788946  0.45270350  0.30249742     0.70200
O32         O  0.35201022  0.44279667  0.30742673    -0.46700
C33         C  0.34136161  0.39188314  0.38716243     0.74900
O34         O  0.38881612  0.43980058  0.34423285    -0.58600
O35         O  0.35288198  0.40409822  0.41530864    -0.48700
O36         O  0.38940757  0.43809730  0.41297880    -0.55000
C37         C  0.32585782  0.46751633  0.42921210     0.85100
O38         O  0.31137279  0.45170345  0.33510427    -0.56900
O39         O  0.32854757  0.40243532  0.35683293    -0.60200
In40       In  0.34298439  0.55505396  0.12076735     1.36900
C41         C  0.40044413  0.55674223  0.12292341     0.77500
O42         O  0.34574569  0.54499590  0.05168762    -0.60900
O43         O  0.30650259  0.53794195  0.08477254    -0.51900
C44         C  0.33037873  0.52173548  0.17429252     0.70200
O45         O  0.35372488  0.52277745  0.15315913    -0.46700
C46         C  0.33351031  0.59816813  0.13705597     0.74900
O47         O  0.38525168  0.55541244  0.15669706    -0.58600
O48         O  0.33186727  0.59048215  0.09914447    -0.48700
O49         O  0.38601394  0.55698091  0.08785024    -0.55000
C50         C  0.32155785  0.53533933  0.05104914     0.85100
O51         O  0.31332135  0.53824561  0.16862400    -0.56900
O52         O  0.33567461  0.58338636  0.16623482    -0.60200
C53         C  0.07726200  0.26804285  0.44658145     0.86400
C54         C  0.08424519  0.29298205  0.44321230    -0.53800
C55         C  0.07614591  0.30308712  0.40482134     0.09300
C56         C  0.06009137  0.28724668  0.37361503     0.20300
C57         C  0.04439545  0.26643431  0.43749592    -0.54500
C58         C  0.03507427  0.27701612  0.40047887     0.09400
C59         C  0.09063357  0.25777756  0.40519505    -0.54100
C60         C  0.08191992  0.26774303  0.36660305     0.10000
H61         H  0.09477516  0.30183221  0.46951968     0.14500
H62         H  0.05276532  0.29571517  0.34327771     0.00300
H63         H  0.02952472  0.25726838  0.45804411     0.14800
H64         H  0.10489524  0.24328468  0.40607945     0.14600
C65         C  0.12817105  0.23465592  0.19921622     0.86400
C66         C  0.12008217  0.20993898  0.19902044    -0.53800
C67         C  0.12725463  0.19881826  0.16215468     0.09300
C68         C  0.14302145  0.21347592  0.12846703     0.20300
C69         C  0.16104191  0.23520457  0.18945783    -0.54500
C70         C  0.16897322  0.22375923  0.15318013     0.09400
C71         C  0.11460689  0.24443140  0.15678986    -0.54100
C72         C  0.12207376  0.23349679  0.11925470     0.10000
H73         H  0.10948264  0.20187320  0.22632043     0.14500
H74         H  0.14930880  0.20383109  0.09952376     0.00300
H75         H  0.17680422  0.24430313  0.20856304     0.14800
H76         H  0.10146459  0.25953240  0.15641022     0.14600
C77         C  0.36742927  0.26440699  0.31730201     0.86400
C78         C  0.35653190  0.28841375  0.32348183    -0.53800
C79         C  0.36558824  0.29811137  0.36131210     0.09300
C80         C  0.38546612  0.28262660  0.38981627     0.20300
C81         C  0.40054169  0.26568137  0.32204120    -0.54500
C82         C  0.41049485  0.27458160  0.35997601     0.09400
C83         C  0.35718589  0.25247028  0.35928524    -0.54100
C84         C  0.36686175  0.26176261  0.39723273     0.10000
H85         H  0.34297147  0.29705549  0.29952276     0.14500
H86         H  0.39311560  0.29016993  0.42062460     0.00300
H87         H  0.41499451  0.25985599  0.29676442     0.14800
H88         H  0.34245853  0.23852563  0.35996869     0.14600
C89         C  0.33657079  0.22282791  0.06609541     0.86400
C90         C  0.34228073  0.19761120  0.07187249    -0.53800
C91         C  0.33160725  0.18862154  0.10899776     0.09300
C92         C  0.31555112  0.20551484  0.13781159     0.20300
C93         C  0.30327829  0.22533129  0.07072612    -0.54500
C94         C  0.29202539  0.21624822  0.10797501     0.09400
C95         C  0.34921426  0.23264810  0.10830343    -0.54100
C96         C  0.33798374  0.22413998  0.14653238     0.10000
H97         H  0.35343612  0.18686555  0.04946592     0.14500
H98         H  0.30583426  0.19807724  0.16687743     0.00300
H99         H  0.28972849  0.23349793  0.04608422     0.14800
H100        H  0.36593043  0.24522955  0.10717429     0.14600
In101      In  0.08339432  0.94186613  0.39553217     1.36900
C102        C  0.14100582  0.94304375  0.38753899     0.77500
O103        O  0.09065805  0.97435088  0.42641645    -0.60900
O104        O  0.05537981  0.95537792  0.45026262    -0.51900
C105        C  0.06134147  0.96233656  0.32593542     0.70200
O106        O  0.08340082  0.94969774  0.32482802    -0.46700
C107        C  0.07647043  0.89819075  0.40801951     0.74900
O108        O  0.12388844  0.94195914  0.35544229    -0.58600
O109        O  0.08980953  0.91040179  0.43425852    -0.48700
O110        O  0.12847259  0.94341247  0.42385164    -0.55000
C111        C  0.06954162  0.97335726  0.45210436     0.85100
O112        O  0.04788814  0.96195406  0.36154194    -0.56900
O113        O  0.06265417  0.90871812  0.37857292    -0.60200
In114      In  0.10228115  0.05935114  0.14651920     1.36900
C115        C  0.15807622  0.05074548  0.16159164     0.77500
O116        O  0.10449307  0.05082798  0.07647946    -0.60900
O117        O  0.06369526  0.04739518  0.10727959    -0.51900
C118        C  0.07864515  0.03005028  0.20077953     0.70200
O119        O  0.10109025  0.02640201  0.17876736    -0.46700
C120        C  0.10412486  0.10394853  0.14614724     0.74900
O121        O  0.14412286  0.04282934  0.13001849    -0.58600
O122        O  0.11351074  0.09211990  0.11570438    -0.48700
O123        O  0.14310027  0.06251984  0.18698359    -0.55000
C124        C  0.07892735  0.04364364  0.07420721     0.85100
O125        O  0.06871885  0.04980226  0.19753875    -0.56900
O126        O  0.09092952  0.09313236  0.17532755    -0.60200
In127      In  0.32350255  0.93397678  0.36588656     1.36900
C128        C  0.26650996  0.93961555  0.37422623     0.77500
O129        O  0.32611658  0.93996729  0.29467142    -0.60900
O130        O  0.36408208  0.94561806  0.33255058    -0.51900
C131        C  0.33912870  0.96622497  0.41922422     0.70200
O132        O  0.31973079  0.96835264  0.39025741    -0.46700
C133        C  0.32578685  0.89005163  0.37748243     0.74900
O134        O  0.28276357  0.93205072  0.40426155    -0.58600
O135        O  0.31628039  0.89927607  0.34322309    -0.48700
O136        O  0.27969502  0.94455792  0.33968506    -0.55000
C137        C  0.35148804  0.94761850  0.29611998     0.85100
O138        O  0.35100183  0.94707685  0.42108950    -0.56900
O139        O  0.33733032  0.90319538  0.40420093    -0.60200
In140      In  0.33691568  0.04888861  0.12202214     1.36900
C141        C  0.28150305  0.04828506  0.14449759     0.77500
O142        O  0.33320992  0.01538946  0.14967795    -0.60900
O143        O  0.36926406  0.03458976  0.17110977    -0.51900
C144        C  0.35464958  0.03059689  0.04961429     0.70200
O145        O  0.32990770  0.03963953  0.05328551    -0.46700
C146        C  0.34374812  0.09265284  0.11814362     0.74900
O147        O  0.29066642  0.03999006  0.10967267    -0.58600
O148        O  0.35119039  0.08158730  0.15174968    -0.48700
O149        O  0.30078039  0.05704423  0.16796039    -0.55000
C150        C  0.35579030  0.01625189  0.17297998     0.85100
O151        O  0.37185605  0.03338636  0.08136058    -0.56900
O152        O  0.33693856  0.08092422  0.08603074    -0.60200
C153        C  0.05169523  0.73402100  0.08453413     0.86400
C154        C  0.06261036  0.71003771  0.08781562    -0.53800
C155        C  0.05530884  0.69885453  0.12480671     0.09300
C156        C  0.03793445  0.71332218  0.15710069     0.20300
C157        C  0.01876749  0.73315627  0.09333517    -0.54500
C158        C  0.01131098  0.72198264  0.13055382     0.09400
C159        C  0.06374324  0.74508505  0.12593806    -0.54100
C160        C  0.05639640  0.73452360  0.16412974     0.10000
H161        H  0.07525488  0.70238934  0.06215907     0.14500
H162        H  0.03206139  0.70454985  0.18771162     0.00300
H163        H  0.00254904  0.74159472  0.07312933     0.14800
H164        H  0.07624088  0.76032889  0.12532968     0.14600
C165        C  0.09281319  0.77180773  0.33359983     0.86400
C166        C  0.08520554  0.79647784  0.34243701    -0.53800
C167        C  0.09625448  0.80444104  0.38039823     0.09300
C168        C  0.11447054  0.78724275  0.40649289     0.20300
C169        C  0.12619278  0.77089512  0.33662921    -0.54500
C170        C  0.13792739  0.77835767  0.37489388     0.09400
C171        C  0.08234172  0.75967707  0.37507362    -0.54100
C172        C  0.09345744  0.76768900  0.41354507     0.10000
H173        H  0.07178669  0.80720103  0.32197902     0.14500
H174        H  0.12303235  0.79437468  0.43699885     0.00300
H175        H  0.13925723  0.76521288  0.30968046     0.14800
H176        H  0.06687834  0.74615982  0.37376657     0.14600
C177        C  0.34680286  0.72550839  0.22249126     0.86400
C178        C  0.34134880  0.70031674  0.21815518    -0.53800
C179        C  0.35015605  0.69138886  0.17953093     0.09300
C180        C  0.36404572  0.70843875  0.14856342     0.20300
C181        C  0.37982766  0.72754037  0.21370414    -0.54500
C182        C  0.38872842  0.71872247  0.17543077     0.09400
C183        C  0.33208115  0.73602556  0.18171248    -0.54100
C184        C  0.34094584  0.72709765  0.14307995     0.10000
H185        H  0.33098890  0.69044918  0.24332120     0.14500
H186        H  0.37147253  0.70123556  0.11738672     0.00300
H187        H  0.39585261  0.73450781  0.23547438     0.14800
H188        H  0.31624100  0.74953801  0.18333156     0.14600
C189        C  0.30188945  0.76407200  0.46983674     0.86400
C190        C  0.31278528  0.78802191  0.46267483    -0.53800
C191        C  0.30562658  0.79730735  0.42300816     0.09300
C192        C  0.28744100  0.78172999  0.39404358     0.20300
C193        C  0.26864912  0.76610817  0.46121097    -0.54500
C194        C  0.26124284  0.77538067  0.42198402     0.09400
C195        C  0.31320934  0.75099570  0.43015074    -0.54100
C196        C  0.30579499  0.76031545  0.39066276     0.10000
H197        H  0.32414233  0.79705486  0.48793094     0.14500
H198        H  0.28131993  0.78889792  0.36175160     0.00300
H199        H  0.25168715  0.76047835  0.48266951     0.14800
H200        H  0.32635268  0.73590236  0.43302085     0.14600
C201        C  0.33016583  0.73513299  0.09958117    -0.00200
C202        C  0.35043570  0.74130685  0.06809252    -0.12100
C203        C  0.34191472  0.75109175  0.52527173     0.02000
C204        C  0.31190538  0.75422583  0.51467783    -0.00300
C205        C  0.29136240  0.74467246  0.04761987    -0.12000
C206        C  0.30035107  0.73635639  0.08853525     0.01900
H207        H  0.37347066  0.74001133  0.07585611     0.10900
H208        H  0.26830634  0.74522242  0.04128547     0.14900
C209        C  0.27833929  0.72799064  0.11737450     0.36500
C210        C  0.36453477  0.75519948  0.49409219     0.36400
N211        N  0.26010155  0.72114254  0.13928487    -0.43800
N212        N  0.38307006  0.75797526  0.46949926    -0.43800
C213        C  0.33564515  0.73530318  0.26600684    -0.00200
C214        C  0.35418728  0.74736831  0.29401887    -0.12100
C215        C  0.34489989  0.75530957  0.33434968     0.02000
C216        C  0.31630424  0.75163290  0.34825124    -0.00300
C217        C  0.29711370  0.74072140  0.32018185    -0.12000
C218        C  0.30632738  0.73268899  0.27960835     0.01900
H219        H  0.37610346  0.75144885  0.28500798     0.14900
H220        H  0.27478575  0.73835946  0.33004749     0.14900
C221        C  0.28494841  0.72178271  0.25290012     0.36500
C222        C  0.36502205  0.76806354  0.36006562     0.36400
N223        N  0.26743781  0.71297741  0.23223300    -0.43800
N224        N  0.38151514  0.77840536  0.37979318    -0.43800
C225        C  0.23042082  0.77755712  0.40744839    -0.00200
C226        C  0.21883870  0.76087455  0.38136804    -0.12100
C227        C  0.18914586  0.76058705  0.37053786     0.02000
C228        C  0.17012821  0.77779786  0.38505612    -0.00300
C229        C  0.18214669  0.79461835  0.41114715    -0.12000
C230        C  0.21181628  0.79450556  0.42267714     0.01900
H231        H  0.23290129  0.74738051  0.37095217     0.14900
H232        H  0.16842963  0.80788761  0.42309196     0.14900
C233        C  0.22258601  0.81179803  0.45066383     0.36500
C234        C  0.17915170  0.74145961  0.34689299     0.36400
N235        N  0.23106126  0.82568590  0.47317634    -0.43800
N236        N  0.17199138  0.72593570  0.32770226    -0.43800
C237        C  0.41981403  0.71926294  0.16240920    -0.00200
C238        C  0.43673342  0.69963805  0.16386091    -0.12100
C239        C  0.46677107  0.70009856  0.15514395     0.02000
C240        C  0.48024937  0.72050772  0.14437141    -0.00300
C241        C  0.46313442  0.74008023  0.14334128    -0.12000
C242        C  0.43332353  0.73960710  0.15225157     0.01900
H243        H  0.42650738  0.68397952  0.17229517     0.14900
H244        H  0.47311581  0.75588025  0.13527825     0.14900
C245        C  0.41679650  0.76018869  0.14991893     0.36500
C246        C  0.48286621  0.67931867  0.15608535     0.36400
N247        N  0.40341592  0.77661845  0.14795886    -0.43800
N248        N  0.99541597  0.66248699  0.15704627    -0.43800
C249        C  0.06088861  0.74413457  0.04040606    -0.00200
C250        C  0.08953503  0.75202571  0.03624988    -0.12100
C251        C  0.10111722  0.75926249  0.49523700     0.02000
C252        C  0.08312482  0.76005147  0.45758188    -0.00300
C253        C  0.05421438  0.75309672  0.46179056    -0.12000
C254        C  0.04339271  0.74495748  0.50128117     0.01900
H255        H  0.10374876  0.75218743  0.06453828     0.14900
H256        H  0.03990718  0.75331312  0.43357623     0.14900
C257        C  0.01554598  0.73411797  0.49885890     0.36500
C258        C  0.13198636  0.76323865  0.49352254     0.36400
N259        N  0.99324560  0.72543939  0.49603514    -0.43800
N260        N  0.15680944  0.76623255  0.49310052    -0.43800
C261        C  0.06366046  0.74389304  0.20792377    -0.00200
C262        C  0.07684430  0.73024805  0.23986974    -0.12100
C263        C  0.08564658  0.73882678  0.28036331     0.02000
C264        C  0.08121622  0.76174183  0.29035065    -0.00300
C265        C  0.06693895  0.77507432  0.25823265    -0.12000
C266        C  0.05807465  0.76642783  0.21801992     0.01900
H267        H  0.08092840  0.71284134  0.23282346     0.14900
H268        H  0.06269679  0.79253014  0.26307770     0.14900
C269        C  0.04243210  0.78105757  0.18810862     0.36500
C270        C  0.09914045  0.72348390  0.31106380     0.36400
N271        N  0.02986473  0.79278534  0.16424616    -0.43800
N272        N  0.10955252  0.71101313  0.33575872    -0.43800
C273        C  0.36099388  0.01577328  0.01299061    -0.00200
C274        C  0.33649086  0.02159335  0.47787087    -0.12100
C275        C  0.33356322  0.00608156  0.44464732     0.02000
C276        C  0.34623020  0.98453976  0.44949934    -0.00300
C277        C  0.36956315  0.97797609  0.98793028    -0.12000
C278        C  0.37242175  0.99409102  0.02024329     0.01900
H279        H  0.32516219  0.03751580  0.47507980     0.14900
H280        H  0.37663054  0.96099681  0.99490883     0.14900
C281        C  0.38457351  0.98726357  0.06184317     0.36500
C282        C  0.31631390  0.01262036  0.40701883     0.36400
N283        N  0.39440255  0.98168278  0.09504276    -0.43800
N284        N  0.30243219  0.01789001  0.37696513    -0.43800
C285        C  0.36303862  0.96116702  0.26014085    -0.00200
C286        C  0.37734076  0.98100999  0.27088839    -0.12100
C287        C  0.37769984  0.99904326  0.24151890     0.02000
C288        C  0.36425546  0.99691103  0.20042811    -0.00300
C289        C  0.35393501  0.97597545  0.18771225    -0.12000
C290        C  0.35301302  0.95820030  0.21719624     0.01900
H291        H  0.38512481  0.98343061  0.30390196     0.14900
H292        H  0.34438255  0.97396443  0.15559885     0.14900
C293        C  0.33951341  0.93776096  0.20352403     0.36500
C294        C  0.38865746  0.02013344  0.25631887     0.36400
N295        N  0.32858115  0.92148315  0.19230829    -0.43800
N296        N  0.39729611  0.03707083  0.26828342    -0.43800
C297        C  0.32157272  0.86605986  0.38676595    -0.00200
C298        C  0.34298686  0.85393129  0.40979350    -0.12100
C299        C  0.33884207  0.83145327  0.42104682     0.02000
C300        C  0.31233255  0.82083425  0.41024490    -0.00300
C301        C  0.29099525  0.83313988  0.38711023    -0.12000
C302        C  0.29536717  0.85542381  0.37523835     0.01900
H303        H  0.36315166  0.86200766  0.41870968     0.14900
H304        H  0.27028377  0.82559595  0.37938614     0.14900
C305        C  0.27176324  0.86735903  0.35365798     0.36500
C306        C  0.36258987  0.81980177  0.44259188     0.36400
N307        N  0.25285768  0.87697219  0.33653020    -0.43800
N308        N  0.38186455  0.81077890  0.45997930    -0.43800
C309        C  0.25056488  0.04769004  0.15622036    -0.00200
C310        C  0.23430910  0.02908119  0.14405241    -0.12100
C311        C  0.20416648  0.02886552  0.14922754     0.02000
C312        C  0.18980373  0.04777486  0.16599692    -0.00300
C313        C  0.20629831  0.06565388  0.18133269    -0.12000
C314        C  0.23655093  0.06574905  0.17664921     0.01900
H315        H  0.24513892  0.01483667  0.12965848     0.14900
H316        H  0.19540022  0.08022553  0.19432448     0.14900
C317        C  0.25229122  0.08530998  0.18975157     0.36500
C318        C  0.18852559  0.00908005  0.13706468     0.36400
N319        N  0.26496681  0.10097301  0.20015826    -0.43800
N320        N  0.17607652  0.99314478  0.12764481    -0.43800
C321        C  0.17310754  0.94352566  0.38341132    -0.00200
C322        C  0.19018037  0.94016208  0.42104959    -0.12100
C323        C  0.22053773  0.93941614  0.41912013     0.02000
C324        C  0.23456701  0.94201843  0.37867946    -0.00300
C325        C  0.21756943  0.94624615  0.34123529    -0.12000
C326        C  0.18715292  0.94699039  0.34316537     0.01900
H327        H  0.17977743  0.93775813  0.45224402     0.14900
H328        H  0.22802494  0.94857493  0.31005842     0.14900
C329        C  0.17116091  0.95146456  0.30329537     0.36500
C330        C  0.23655411  0.93607757  0.45934519     0.36400
N331        N  0.15846243  0.95507980  0.27126327    -0.43800
N332        N  0.24945585  0.93343533  0.49152273    -0.43800
C333        C  0.05498712  0.97828851  0.28995114    -0.00200
C334        C  0.06533086  0.97287607  0.24865380    -0.12100
C335        C  0.07049129  0.98947050  0.21759759     0.02000
C336        C  0.06589450  0.01215051  0.22801500    -0.00300
C337        C  0.05177057  0.01732800  0.26697149    -0.12000
C338        C  0.04602627  0.00052526  0.29789607     0.01900
H339        H  0.07139768  0.95576277  0.24167585     0.14900
H340        H  0.04715564  0.03459880  0.27465304     0.14900
C341        C  0.03341116  0.00689061  0.33883087     0.36500
C342        C  0.08153135  0.98273342  0.17582326     0.36400
N343        N  0.02312990  0.01194896  0.37154691    -0.43800
N344        N  0.09030240  0.97734797  0.14233147    -0.43800
C345        C  0.06977238  0.02901359  0.03844268    -0.00200
C346        C  0.05597347  0.00892390  0.04925691    -0.12100
C347        C  0.04897957  0.99001735  0.52163849     0.02000
C348        C  0.06285832  0.99231536  0.48106414    -0.00300
C349        C  0.07330902  0.01336105  0.46866980    -0.12000
C350        C  0.08115283  0.03178592  0.99642535     0.01900
H351        H  0.04725075  0.00661873  0.08164431     0.14900
H352        H  0.08271636  0.01572967  0.43673452     0.14900
C353        C  0.09378156  0.05261436  0.98264238     0.36500
C354        C  0.03612768  0.96927123  0.53525981     0.36400
N355        N  0.10382216  0.06933328  0.97161987    -0.43800
N356        N  0.02557450  0.95274265  0.54628845    -0.43800
C357        C  0.08059081  0.87366704  0.40816578    -0.00200
C358        C  0.05694560  0.85943950  0.40172625    -0.12100
C359        C  0.06150126  0.83642664  0.39625120     0.02000
C360        C  0.09013742  0.82760154  0.39485076    -0.00300
C361        C  0.11352888  0.84164037  0.40341734    -0.12000
C362        C  0.10902929  0.86441303  0.41045752     0.01900
H363        H  0.03502639  0.86628967  0.40080492     0.14900
H364        H  0.13551538  0.83508562  0.40225263     0.14900
C365        C  0.13430321  0.87820642  0.41646666     0.36500
C366        C  0.03661355  0.82201890  0.39309633     0.36400
N367        N  0.15451462  0.88927710  0.42128770    -0.43800
N368        N  0.01690353  0.81021773  0.39107191    -0.43800
C369        C  0.33334261  0.16419505  0.11615977    -0.00200
C370        C  0.31646417  0.15091367  0.08887572    -0.12100
C371        C  0.31987990  0.12778215  0.08883182     0.02000
C372        C  0.34064967  0.11730328  0.11683460    -0.00300
C373        C  0.35744345  0.13061051  0.14459768    -0.12000
C374        C  0.35446765  0.15398165  0.14356660     0.01900
H375        H  0.30080664  0.15878938  0.06681429     0.14900
H376        H  0.37358757  0.12282693  0.16591725     0.14900
C377        C  0.37472212  0.16715088  0.16821610     0.36500
C378        C  0.30129810  0.11530408  0.05999925     0.36400
N379        N  0.39120122  0.17767787  0.18764673    -0.43800
N380        N  0.28654508  0.10523937  0.03685896    -0.43800
C381        C  0.36001746  0.25203560  0.44105135    -0.00200
C382        C  0.34903300  0.26552094  0.47434340    -0.12100
C383        C  0.34415372  0.25701363  0.01449207     0.02000
C384        C  0.34787445  0.23379328  0.02335421    -0.00300
C385        C  0.36091284  0.22089440  0.99034742    -0.12000
C386        C  0.36361167  0.22905927  0.44948292     0.01900
H387        H  0.34625381  0.28326882  0.46839299     0.14900
H388        H  0.36521914  0.20339534  0.99437820     0.14900
C389        C  0.37654293  0.21442375  0.41780404     0.36500
C390        C  0.33189395  0.27182141  0.04636430     0.36400
N391        N  0.38683871  0.20281897  0.39222422    -0.43800
N392        N  0.32216991  0.28365435  0.07205523    -0.43800
C393        C  0.35889142  0.25395100  0.27322300    -0.00200
C394        C  0.34873854  0.23190002  0.27093577    -0.12100
C395        C  0.34245495  0.22157043  0.23112880     0.02000
C396        C  0.34559951  0.23341497  0.19105871    -0.00300
C397        C  0.35631761  0.25532924  0.19353159    -0.12000
C398        C  0.36388891  0.26516362  0.23319220     0.01900
H399        H  0.34689064  0.22185643  0.30006358     0.14900
H400        H  0.35890384  0.26527436  0.16432193     0.14900
C401        C  0.37774670  0.28664864  0.23121842     0.36500
C402        C  0.33412684  0.19848949  0.23405799     0.36400
N403        N  0.38903746  0.30377714  0.22930588    -0.43800
N404        N  0.32727425  0.18006604  0.23804365    -0.43800
C405        C  0.12033423  0.17471562  0.15581471    -0.00200
C406        C  0.14194116  0.16025036  0.14021346    -0.12100
C407        C  0.13686429  0.13730773  0.13616250     0.02000
C408        C  0.10969951  0.12830017  0.14824532    -0.00300
C409        C  0.08795026  0.14276697  0.16320675    -0.12000
C410        C  0.09277499  0.16579660  0.16610269     0.01900
H411        H  0.16310615  0.16678208  0.13201057     0.14900
H412        H  0.06687125  0.13612596  0.17167892     0.14900
C413        C  0.06851274  0.18002690  0.17723745     0.36500
C414        C  0.16041448  0.12324737  0.12136169     0.36400
N415        N  0.04897886  0.19144815  0.18571293    -0.43800
N416        N  0.17925652  0.11197373  0.10949072    -0.43800
C417        C  0.19994060  0.22174638  0.13955398    -0.00200
C418        C  0.21515469  0.20184910  0.14825490    -0.12100
C419        C  0.24480015  0.19949323  0.13819399     0.02000
C420        C  0.26010946  0.21747824  0.11889470    -0.00300
C421        C  0.24450755  0.23739588  0.10994538    -0.12000
C422        C  0.21485097  0.23963861  0.12014812     0.01900
H423        H  0.20384662  0.18810378  0.16352783     0.14900
H424        H  0.25559964  0.25145389  0.09544465     0.14900
C425        C  0.19991552  0.26028868  0.10948281     0.36500
C426        C  0.25820877  0.17810416  0.14740714     0.36400
N427        N  0.18779577  0.27673404  0.10055173    -0.43800
N428        N  0.26817134  0.16077798  0.15580364    -0.43800
C429        C  0.44252625  0.27492406  0.37118918    -0.00200
C430        C  0.45472584  0.29386802  0.39049374    -0.12100
C431        C  0.48485128  0.29518109  0.39900152     0.02000
C432        C  0.50357750  0.27733934  0.38813282    -0.00300
C433        C  0.49143224  0.25809700  0.37049179    -0.12000
C434        C  0.46144181  0.25669142  0.36195128     0.01900
H435        H  0.44087331  0.30781306  0.39861981     0.14900
H436        H  0.50549990  0.24393158  0.36382091     0.14900
C437        C  0.45079503  0.23588024  0.34517636     0.36500
C438        C  0.49593704  0.31471989  0.42021532     0.36400
N439        N  0.44240885  0.21925716  0.33128938    -0.43800
N440        N  0.00473933  0.33034958  0.43746166    -0.43800
C441        C  0.11086154  0.24092396  0.07477045    -0.00200
C442        C  0.08367452  0.25194620  0.07153065    -0.12100
C443        C  0.07284901  0.26063210  0.03185643     0.02000
C444        C  0.08755692  0.25806335  0.49093774    -0.00300
C445        C  0.11518403  0.24598832  0.99573430    -0.12000
C446        C  0.12691127  0.23853358  0.03587296     0.01900
H447        H  0.07079955  0.25440859  0.10044083     0.14900
H448        H  0.12974809  0.24768832  0.46741625     0.14900
C449        C  0.15637388  0.23004956  0.03555858     0.36500
C450        C  0.04516311  0.27422242  0.53136132     0.36400
N451        N  0.18000598  0.22326851  0.03419781    -0.43800
N452        N  0.02399080  0.28478859  0.53277568    -0.43800
C453        C  0.09363092  0.26054462  0.32299043    -0.00200
C454        C  0.12227025  0.25209271  0.32071032    -0.12100
C455        C  0.13390182  0.24377727  0.28187781     0.02000
C456        C  0.11792889  0.24554020  0.24209663    -0.00300
C457        C  0.08902512  0.25364160  0.24475848    -0.12000
C458        C  0.07685392  0.26086768  0.28410882     0.01900
H459        H  0.13565945  0.25131381  0.34989268     0.14900
H460        H  0.07496334  0.25322911  0.21635585     0.14900
C461        C  0.04637415  0.26682727  0.28344331     0.36500
C462        C  0.16142699  0.23206779  0.28534623     0.36400
N463        N  0.02192220  0.27158524  0.28198052    -0.43800
N464        N  0.18342100  0.22259614  0.28857437    -0.43800
C465        C  0.33591763  0.62231679  0.14710561    -0.00200
C466        C  0.34858746  0.62803296  0.18725411    -0.12100
C467        C  0.35429442  0.65021501  0.19766417     0.02000
C468        C  0.34622048  0.66750028  0.16841846    -0.00300
C469        C  0.33409167  0.66193183  0.12788773    -0.12000
C470        C  0.32921294  0.63958353  0.11680094     0.01900
H471        H  0.35524031  0.61501872  0.21011905     0.14900
H472        H  0.32823246  0.67510117  0.10489023     0.14900
C473        C  0.31744997  0.63497268  0.07418972     0.36500
C474        C  0.37033126  0.65465202  0.23720297     0.36400
N475        N  0.30817492  0.63136197  0.03988740    -0.43800
N476        N  0.38344537  0.65825544  0.26861322    -0.43800
C477        C  0.31607559  0.48639738  0.45632790    -0.00200
C478        C  0.32499380  0.50781920  0.44366653    -0.12100
C479        C  0.32301479  0.52417274  0.97278287     0.02000
C480        C  0.31372682  0.52005806  0.01560354    -0.00300
C481        C  0.30303858  0.49885674  0.02658489    -0.12000
C482        C  0.30468421  0.48119696  0.99698864     0.01900
H483        H  0.33512540  0.51032988  0.41228531     0.14900
H484        H  0.29611211  0.49550279  0.05962510     0.14900
C485        C  0.29697584  0.45912334  0.01171467     0.36500
C486        C  0.33520666  0.54682178  0.45841310     0.36400
N487        N  0.29093405  0.44142666  0.02369394    -0.43800
N488        N  0.34496573  0.56366823  0.44756193    -0.43800
C489        C  0.32177286  0.46692945  0.26389022    -0.00200
C490        C  0.30412116  0.48597937  0.26885874    -0.12100
C491        C  0.30520763  0.50372762  0.23887102     0.02000
C492        C  0.32425818  0.50246174  0.20316616    -0.00300
C493        C  0.33958056  0.48246792  0.19603497    -0.12000
C494        C  0.33827369  0.46471433  0.22567414     0.01900
H495        H  0.29124555  0.48783662  0.29800795     0.14900
H496        H  0.35344404  0.48092594  0.16784020     0.14900
C497        C  0.35490607  0.44472115  0.21683172     0.36500
C498        C  0.28831863  0.52357434  0.24754717     0.36400
N499        N  0.36814816  0.42865502  0.20989811    -0.43800
N500        N  0.27474052  0.53946042  0.25458850    -0.43800
C501        C  0.34570351  0.36737303  0.38695397    -0.00200
C502        C  0.32383273  0.35354698  0.37068981    -0.12100
C503        C  0.32908230  0.33067360  0.36457812     0.02000
C504        C  0.35716987  0.32144022  0.37304583    -0.00300
C505        C  0.37845055  0.33517735  0.39108739    -0.12000
C506        C  0.37304097  0.35782755  0.39820207     0.01900
H507        H  0.30266337  0.36065400  0.36252233     0.14900
H508        H  0.39991600  0.32850789  0.39790209     0.14900
C509        C  0.39685070  0.37119174  0.41382810     0.36500
C510        C  0.30498798  0.31709054  0.35088583     0.36400
N511        N  0.41592288  0.38192306  0.42622243    -0.43800
N512        N  0.28556936  0.30627532  0.34006996    -0.43800
C513        C  0.49753260  0.44520734  0.37863299    -0.00200
C514        C  0.48134367  0.45087866  0.34105185    -0.12100
C515        C  0.45094914  0.44992869  0.34051459     0.02000
C516        C  0.43596232  0.44299950  0.37824072    -0.00300
C517        C  0.45203178  0.43826588  0.41635810    -0.12000
C518        C  0.48247325  0.43939136  0.41695272     0.01900
H519        H  0.49246230  0.45579706  0.31156262     0.14900
H520        H  0.44082413  0.43332219  0.44575006     0.14900
C521        C  0.49751988  0.43459423  0.45744568     0.36500
C522        C  0.43587163  0.45642787  0.30081940     0.36400
N523        N  0.50964862  0.43085284  0.48990068    -0.43800
N524        N  0.42372689  0.46167746  0.26912621    -0.43800
C525        C  0.09068628  0.37339783  0.37734697    -0.00200
C526        C  0.11220664  0.36070997  0.39917740    -0.12100
C527        C  0.10872149  0.33766339  0.40645073     0.02000
C528        C  0.08243885  0.32708000  0.39414185    -0.00300
C529        C  0.06148850  0.33972368  0.37099988    -0.12000
C530        C  0.06548533  0.36245458  0.36210871     0.01900
H531        H  0.13201093  0.36873512  0.40988837     0.14900
H532        H  0.04140068  0.33203168  0.36065655     0.14900
C533        C  0.04252899  0.37437095  0.33904170     0.36500
C534        C  0.13314364  0.32512074  0.42416529     0.36400
N535        N  0.02421906  0.38394145  0.32043518    -0.43800
N536        N  0.15275965  0.31496804  0.43795606    -0.43800
C537        C  0.49383582  0.56040632  0.12250865    -0.00200
C538        C  0.47941061  0.55420907  0.16074847    -0.12100
C539        C  0.44908705  0.55290554  0.16183794     0.02000
C540        C  0.43250974  0.55799133  0.12400634    -0.00300
C541        C  0.44688185  0.56436680  0.08588109    -0.12000
C542        C  0.47718015  0.56559633  0.08469726     0.01900
H543        H  0.49186724  0.55006557  0.18991116     0.14900
H544        H  0.43439509  0.56845821  0.05670760     0.14900
C545        C  0.49026180  0.57225641  0.04409858     0.36500
C546        C  0.43580234  0.54571171  0.20192669     0.36400
N547        N  0.00060919  0.57754335  0.01145069    -0.43800
N548        N  0.42507310  0.53991667  0.23396060    -0.43800
C549        C  0.10701208  0.52813827  0.01255910    -0.00200
C550        C  0.12463804  0.50907341  0.01924506    -0.12100
C551        C  0.12422078  0.49137464  0.98961035     0.02000
C552        C  0.10849869  0.49364484  0.45319136    -0.00300
C553        C  0.09651023  0.51470053  0.44251005    -0.12000
C554        C  0.09747542  0.53235048  0.47183626     0.01900
H555        H  0.13712379  0.50724560  0.04920084     0.14900
H556        H  0.08512494  0.51716979  0.41174855     0.14900
C557        C  0.08338934  0.55316477  0.45959981     0.36500
C558        C  0.14138577  0.47167877  0.99963318     0.36400
N559        N  0.07205045  0.56981496  0.44982247    -0.43800
N560        N  0.15522033  0.45592260  0.00773173    -0.43800
C561        C  0.11387300  0.51035491  0.20109493    -0.00200
C562        C  0.12845000  0.51403152  0.24058602    -0.12100
C563        C  0.13162883  0.49676182  0.27148358     0.02000
C564        C  0.12019799  0.47546816  0.26255435    -0.00300
C565        C  0.10925112  0.47120151  0.22080892    -0.12000
C566        C  0.10605502  0.48838344  0.19007244     0.01900
H567        H  0.13500436  0.53077864  0.24892248     0.14900
H568        H  0.10088629  0.45480935  0.21343375     0.14900
C569        C  0.09328252  0.48322079  0.14827051     0.36500
C570        C  0.14322953  0.50211546  0.31386843     0.36400
N571        N  0.08301486  0.47917399  0.11479557    -0.43800
N572        N  0.15239766  0.50640007  0.34791545    -0.43800
C573        C  0.08272076  0.62981259  0.13413319    -0.00200
C574        C  0.06877739  0.63821226  0.09667228    -0.12100
C575        C  0.05800033  0.65997267  0.09458745     0.02000
C576        C  0.06247408  0.67462078  0.12974235    -0.00300
C577        C  0.07594109  0.66621608  0.16788075    -0.12000
C578        C  0.08566351  0.64382911  0.17057402     0.01900
H579        H  0.06496122  0.62730700  0.06929772     0.14900
H580        H  0.07934704  0.67717847  0.19518076     0.14900
C581        C  0.09922048  0.63588324  0.21037652     0.36500
C582        C  0.04112329  0.66637174  0.05649048     0.36400
N583        N  0.11008925  0.62963424  0.24241259    -0.43800
N584        N  0.02760588  0.67130431  0.02588483    -0.43800
In585      In  0.08231673  0.56115722  0.62202847     1.36900
C586        C  0.02481094  0.55726753  0.62432935     0.77500
O587        O  0.07834792  0.52867315  0.65552041    -0.60900
O588        O  0.11536718  0.54797057  0.67168984    -0.51900
C589        C  0.10362571  0.54399349  0.54981871     0.70200
O590        O  0.07945392  0.55399855  0.55152626    -0.46700
C591        C  0.08545533  0.60544293  0.62752743     0.74900
O592        O  0.04010948  0.55079569  0.59317362    -0.58600
O593        O  0.08640580  0.59311360  0.66097730    -0.48700
O594        O  0.03923980  0.56529140  0.65544337    -0.55000
C595        C  0.10191151  0.52980307  0.67647388     0.85100
O596        O  0.11897885  0.54533980  0.58401735    -0.56900
O597        O  0.08736439  0.59499605  0.59236149    -0.60200
In598      In  0.08699913  0.44083529  0.86913395     1.36900
C599        C  0.02920851  0.44220729  0.87308974     0.77500
O600        O  0.08596217  0.45087739  0.79957390    -0.60900
O601        O  0.12490478  0.45690187  0.83493615    -0.51900
C602        C  0.10011212  0.47357244  0.92332552     0.70200
O603        O  0.07882609  0.47406836  0.89718720    -0.46700
C604        C  0.09484930  0.39675152  0.87723974     0.74900
O605        O  0.04305631  0.44434517  0.83819012    -0.58600
O606        O  0.08977341  0.40649344  0.84156975    -0.48700
O607        O  0.04517430  0.43930979  0.90629512    -0.55000
C608        C  0.11032106  0.46020428  0.80043645     0.85100
O609        O  0.11504746  0.45569934  0.92242085    -0.56900
O610        O  0.09980138  0.40972476  0.90837910    -0.60200
In611      In  0.34557818  0.43606429  0.87212087     1.36900
C612        C  0.40318715  0.44025825  0.87203897     0.77500
O613        O  0.34718953  0.46935399  0.90151021    -0.60900
O614        O  0.31417418  0.44776967  0.92417450    -0.51900
C615        C  0.32530370  0.45376575  0.79854054     0.70200
O616        O  0.34934506  0.44357581  0.80174005    -0.46700
C617        C  0.34164895  0.39203508  0.88298111     0.74900
O618        O  0.38804772  0.43877219  0.83788991    -0.58600
O619        O  0.35300491  0.40459309  0.91065049    -0.48700
O620        O  0.38862706  0.43965505  0.90659871    -0.55000
C621        C  0.32587683  0.46674880  0.92634841     0.85100
O622        O  0.30983141  0.45276800  0.83225498    -0.56900
O623        O  0.32843351  0.40221222  0.85252569    -0.60200
In624      In  0.34113997  0.55680628  0.61980314     1.36900
C625        C  0.39893674  0.55633341  0.62326691     0.77500
O626        O  0.34288853  0.54853996  0.54982459    -0.60900
O627        O  0.30464932  0.53972895  0.58394780    -0.51900
C628        C  0.32666224  0.52342640  0.67222471     0.70200
O629        O  0.34966407  0.52379888  0.65024840    -0.46700
C630        C  0.33229508  0.60019117  0.63518723     0.74900
O631        O  0.38333892  0.55789449  0.65655584    -0.58600
O632        O  0.33030611  0.59233446  0.59742673    -0.48700
O633        O  0.38478451  0.55480444  0.58814469    -0.55000
C634        C  0.31929201  0.53802088  0.54958458     0.85100
O635        O  0.31085806  0.54075995  0.66824817    -0.56900
O636        O  0.33488016  0.58552748  0.66453788    -0.60200
C637        C  0.07720838  0.26666154  0.94811444     0.86400
C638        C  0.08497010  0.29139866  0.94504390    -0.53800
C639        C  0.07720737  0.30180723  0.90689531     0.09300
C640        C  0.06062574  0.28637286  0.87541222     0.20300
C641        C  0.04420556  0.26584851  0.93933597    -0.54500
C642        C  0.03529152  0.27653622  0.90206148     0.09400
C643        C  0.08999238  0.25617151  0.90644568    -0.54100
C644        C  0.08152094  0.26637458  0.86795801     0.10000
H645        H  0.09533165  0.29996875  0.97183582     0.14500
H646        H  0.05357259  0.29507079  0.84521874     0.00300
H647        H  0.02907116  0.25712988  0.96020386     0.14800
H648        H  0.10332117  0.24118310  0.90709987     0.14600
C649        C  0.12445671  0.23371430  0.69816769     0.86400
C650        C  0.11502330  0.20935370  0.69648027    -0.53800
C651        C  0.12207273  0.19850263  0.65933022     0.09300
C652        C  0.13923000  0.21299588  0.62682944     0.20300
C653        C  0.15740837  0.23341837  0.68940499    -0.54500
C654        C  0.16527866  0.22224529  0.65285253     0.09400
C655        C  0.11188091  0.24441131  0.65582360    -0.54100
C656        C  0.11953677  0.23371998  0.61803389     0.10000
H657        H  0.10352843  0.20130310  0.72296667     0.14500
H658        H  0.14547507  0.20368962  0.59735702     0.00300
H659        H  0.17328458  0.24188314  0.70946656     0.14800
H660        H  0.09919896  0.25974571  0.65558492     0.14600
C661        C  0.36748375  0.26414540  0.81624372     0.86400
C662        C  0.35703316  0.28830793  0.82229050    -0.53800
C663        C  0.36710079  0.29827195  0.85924721     0.09300
C664        C  0.38730239  0.28292097  0.88724625     0.20300
C665        C  0.40080285  0.26514038  0.81944363    -0.54500
C666        C  0.41155441  0.27446105  0.85657303     0.09400
C667        C  0.35815456  0.25259491  0.85916006    -0.54100
C668        C  0.36873864  0.26221256  0.89625040     0.10000
H669        H  0.34283022  0.29684878  0.79900591     0.14500
H670        H  0.39565401  0.29073742  0.91739104     0.00300
H671        H  0.41473876  0.25875511  0.79403123     0.14800
H672        H  0.34370146  0.23852918  0.86125765     0.14600
C673        C  0.33235202  0.22208288  0.56607947     0.86400
C674        C  0.33858926  0.19698492  0.57220670    -0.53800
C675        C  0.32786104  0.18793823  0.60923441     0.09300
C676        C  0.31146676  0.20473285  0.63787635     0.20300
C677        C  0.29908490  0.22436691  0.57056837    -0.54500
C678        C  0.28798423  0.21522044  0.60776355     0.09400
C679        C  0.34481411  0.23206723  0.60829984    -0.54100
C680        C  0.33359781  0.22365592  0.64671693     0.10000
H681        H  0.35060154  0.18644517  0.55039731     0.14500
H682        H  0.30146179  0.19705244  0.66647654     0.00300
H683        H  0.28541562  0.23250047  0.54601959     0.14800
H684        H  0.36156641  0.24459549  0.60690440     0.14600
In685      In  0.09103904  0.94077614  0.89820536     1.36900
C686        C  0.14862534  0.94088161  0.89256390     0.77500
O687        O  0.09732207  0.97461962  0.92449362    -0.60900
O688        O  0.06430410  0.95512900  0.95320305    -0.51900
C689        C  0.06863080  0.96020629  0.82811438     0.70200
O690        O  0.09222816  0.94928866  0.82774232    -0.46700
C691        C  0.08215847  0.89729451  0.91128916     0.74900
O692        O  0.13202065  0.93977355  0.85983568    -0.58600
O693        O  0.09644956  0.90911830  0.93713959    -0.48700
O694        O  0.13562598  0.94175766  0.92847177    -0.55000
C695        C  0.07733465  0.97361264  0.95207905     0.85100
O696        O  0.05428783  0.95836950  0.86279149    -0.56900
O697        O  0.06905911  0.90820340  0.88167937    -0.60200
In698      In  0.09618468  0.05997317  0.64658950     1.36900
C699        C  0.15277856  0.05453662  0.66126628     0.77500
O700        O  0.09775273  0.05043896  0.57685550    -0.60900
O701        O  0.05759611  0.04643148  0.60923733    -0.51900
C702        C  0.07725088  0.02929930  0.70223500     0.70200
O703        O  0.09938184  0.02706957  0.67890351    -0.46700
C704        C  0.09503599  0.10443987  0.64439260     0.74900
O705        O  0.13929240  0.04580864  0.63004880    -0.58600
O706        O  0.10385097  0.09262690  0.61353475    -0.48700
O707        O  0.13712742  0.06616834  0.68599553    -0.55000
C708        C  0.07238401  0.04276343  0.57564926     0.85100
O709        O  0.06503916  0.04833321  0.69941954    -0.56900
O710        O  0.08314716  0.09359758  0.67484264    -0.60200
In711      In  0.33074523  0.93180232  0.86810503     1.36900
C712        C  0.27398537  0.93675108  0.87930342     0.77500
O713        O  0.33118160  0.93966888  0.79774119    -0.60900
O714        O  0.37141457  0.94161372  0.83184701    -0.51900
C715        C  0.34771276  0.96465162  0.91888331     0.70200
O716        O  0.32879925  0.96699921  0.88922062    -0.46700
C717        C  0.33153383  0.88787480  0.88022065     0.74900
O718        O  0.29127509  0.93180125  0.91004982    -0.58600
O719        O  0.32173826  0.89721994  0.84628298    -0.48700
O720        O  0.28611620  0.93978083  0.84312879    -0.55000
C721        C  0.35735957  0.94555356  0.79712095     0.85100
O722        O  0.35816468  0.94509567  0.92273698    -0.56900
O723        O  0.34466087  0.90076735  0.90578445    -0.60200
In724      In  0.33247290  0.04835546  0.62870767     1.36900
C725        C  0.27684075  0.04937202  0.65061400     0.77500
O726        O  0.33035858  0.01485643  0.65803606    -0.60900
O727        O  0.36695810  0.03430314  0.67540883    -0.51900
C728        C  0.34700055  0.03026818  0.55436552     0.70200
O729        O  0.32213925  0.03846913  0.56140631    -0.46700
C730        C  0.34016804  0.09200318  0.62228669     0.74900
O731        O  0.28614095  0.03979555  0.61719953    -0.58600
O732        O  0.34602173  0.08149990  0.65721039    -0.48700
O733        O  0.29622428  0.05821242  0.67379480    -0.55000
C734        C  0.35411361  0.01576749  0.67852050     0.85100
O735        O  0.36571470  0.03341976  0.58401928    -0.56900
O736        O  0.33456521  0.07972445  0.59047351    -0.60200
C737        C  0.05136615  0.73516195  0.58372257     0.86400
C738        C  0.06063780  0.71068455  0.58491411    -0.53800
C739        C  0.05347427  0.69928532  0.62174576     0.09300
C740        C  0.03743056  0.71374405  0.65543274     0.20300
C741        C  0.01860281  0.73538373  0.59367931    -0.54500
C742        C  0.01094993  0.72374922  0.63022896     0.09400
C743        C  0.06472821  0.74501345  0.62550891    -0.54100
C744        C  0.05732058  0.73403756  0.66320782     0.10000
H745        H  0.07210634  0.70289243  0.55821236     0.14500
H746        H  0.03154455  0.70468911  0.68572419     0.00300
H747        H  0.00264542  0.74479260  0.57474412     0.14800
H748        H  0.07773983  0.76000769  0.62565908     0.14600
C749        C  0.09304604  0.77055909  0.83385338     0.86400
C750        C  0.08427777  0.79495905  0.84365914    -0.53800
C751        C  0.09487897  0.80287492  0.88202902     0.09300
C752        C  0.11399222  0.78581730  0.90731747     0.20300
C753        C  0.12646550  0.77072933  0.83674509    -0.54500
C754        C  0.13795857  0.77799676  0.87539082     0.09400
C755        C  0.08335939  0.75761344  0.87481875    -0.54100
C756        C  0.09397461  0.76556681  0.91363883     0.10000
H757        H  0.07141073  0.80574480  0.82265518     0.14500
H758        H  0.12224699  0.79280978  0.93808710     0.00300
H759        H  0.13969207  0.76583070  0.80941486     0.14800
H760        H  0.06873320  0.74358571  0.87284025     0.14600
C761        C  0.34645947  0.72694539  0.72202384     0.86400
C762        C  0.34098650  0.70185727  0.71646838    -0.53800
C763        C  0.34952021  0.69338107  0.67742755     0.09300
C764        C  0.36365138  0.71069866  0.64729246     0.20300
C765        C  0.37949925  0.72896481  0.71348497    -0.54500
C766        C  0.38834918  0.72056176  0.67474602     0.09400
C767        C  0.33187340  0.73802741  0.68159818    -0.54100
C768        C  0.34087669  0.72960362  0.64246351     0.10000
H769        H  0.33096527  0.69160565  0.74135272     0.14500
H770        H  0.37106333  0.70375638  0.61588159     0.00300
H771        H  0.39543301  0.73553004  0.73591192     0.14800
H772        H  0.31613684  0.75157587  0.68386057     0.14600
C773        C  0.30157619  0.76220875  0.97181925     0.86400
C774        C  0.31300976  0.78607309  0.96602944    -0.53800
C775        C  0.30650084  0.79587887  0.92669199     0.09300
C776        C  0.28804010  0.78090630  0.89673889     0.20300
C777        C  0.26840814  0.76488916  0.96307694    -0.54500
C778        C  0.26143582  0.77467550  0.92405493     0.09400
C779        C  0.31280913  0.74941954  0.93174168    -0.54100
C780        C  0.30582892  0.75924756  0.89259199     0.10000
H781        H  0.32429807  0.79465051  0.99195683     0.14500
H782        H  0.28232856  0.78848442  0.86464577     0.00300
H783        H  0.25128279  0.75954003  0.98450569     0.14800
H784        H  0.32567410  0.73417022  0.93419199     0.14600
C785        C  0.33035886  0.73808308  0.59897281    -0.00200
C786        C  0.35068058  0.74328035  0.56677266    -0.12100
C787        C  0.34157398  0.74933604  0.02689523     0.02000
C788        C  0.31152290  0.75172742  0.01598169    -0.00300
C789        C  0.29172342  0.74852271  0.54739756    -0.12000
C790        C  0.30058161  0.74027148  0.58842074     0.01900
H791        H  0.37369788  0.74124478  0.57409652     0.10900
H792        H  0.26862723  0.75015093  0.54200944     0.14900
C793        C  0.27846048  0.73269342  0.61793530     0.36500
C794        C  0.36417328  0.75465060  0.99639551     0.36400
N795        N  0.26046581  0.72635971  0.64088038    -0.43800
N796        N  0.38265407  0.75847291  0.97225263    -0.43800
C797        C  0.33532284  0.73604742  0.76622767    -0.00200
C798        C  0.35337286  0.74890824  0.79360947    -0.12100
C799        C  0.34429981  0.75608622  0.83470489     0.02000
C800        C  0.31638424  0.75092162  0.84985499    -0.00300
C801        C  0.29771004  0.73900932  0.82260051    -0.12000
C802        C  0.30665992  0.73176539  0.78130529     0.01900
H803        H  0.37458789  0.75418834  0.78331494     0.14900
H804        H  0.27596200  0.73528853  0.83362413     0.14900
C805        C  0.28582915  0.71967495  0.75556136     0.36500
C806        C  0.36393933  0.76932163  0.86034003     0.36400
N807        N  0.26912337  0.70971046  0.73543480    -0.43800
N808        N  0.37989059  0.77997822  0.88042194    -0.43800
C809        C  0.23071069  0.77734761  0.90894753    -0.00200
C810        C  0.21951805  0.76161777  0.88038878    -0.12100
C811        C  0.18983705  0.76130191  0.86938483     0.02000
C812        C  0.17032333  0.77771817  0.88578382    -0.00300
C813        C  0.18203560  0.79370549  0.91428078    -0.12000
C814        C  0.21173677  0.79352155  0.92608232     0.01900
H815        H  0.23384560  0.74866836  0.86840975     0.14900
H816        H  0.16818093  0.80610159  0.92837140     0.14900
C817        C  0.22218910  0.80987969  0.95643409     0.36500
C818        C  0.18039286  0.74255816  0.84420798     0.36400
N819        N  0.23060689  0.82293970  0.98082285    -0.43800
N820        N  0.17379726  0.72726427  0.82391966    -0.43800
C821        C  0.41935509  0.72110083  0.66161018    -0.00200
C822        C  0.43634970  0.70155393  0.66377266    -0.12100
C823        C  0.46632492  0.70199171  0.65481990     0.02000
C824        C  0.47980485  0.72237397  0.64380213    -0.00300
C825        C  0.46249283  0.74187246  0.64170342    -0.12000
C826        C  0.43260348  0.74132937  0.65005660     0.01900
H827        H  0.42617819  0.68593800  0.67265741     0.14900
H828        H  0.47230987  0.75764522  0.63302910     0.14900
C829        C  0.41563262  0.76160571  0.64515748     0.36500
C830        C  0.48222175  0.68113504  0.65533485     0.36400
N831        N  0.40180581  0.77771954  0.64083361    -0.43800
N832        N  0.99450264  0.66419982  0.65586108    -0.43800
C833        C  0.06053414  0.74590553  0.54010625    -0.00200
C834        C  0.08966579  0.75266455  0.53558520    -0.12100
C835        C  0.10125263  0.75796335  0.99570187     0.02000
C836        C  0.08380202  0.75739981  0.95750488    -0.00300
C837        C  0.05556468  0.74887921  0.96129237    -0.12000
C838        C  0.04482720  0.74104302  0.00110155     0.01900
H839        H  0.10429881  0.75158378  0.56336683     0.14900
H840        H  0.04175876  0.74765032  0.93270498     0.14900
C841        C  0.01849085  0.72818121  0.99890084     0.36500
C842        C  0.13204674  0.76227714  0.99438777     0.36400
N843        N  0.99751869  0.71774252  0.99637734    -0.43800
N844        N  0.15683729  0.76541612  0.99417410    -0.43800
C845        C  0.06469313  0.74292863  0.70731511    -0.00200
C846        C  0.07986610  0.72960998  0.73778754    -0.12100
C847        C  0.08827868  0.73800591  0.77868119     0.02000
C848        C  0.08180141  0.76046763  0.79027200    -0.00300
C849        C  0.06529828  0.77328507  0.75972602    -0.12000
C850        C  0.05674188  0.76475903  0.71923155     0.01900
H851        H  0.08551315  0.71261425  0.72943306     0.14900
H852        H  0.05866663  0.79012129  0.76626343     0.14900
C853        C  0.03882520  0.77862383  0.69083191     0.36500
C854        C  0.10291421  0.72277681  0.80841969     0.36400
N855        N  0.02436331  0.78959368  0.66802094    -0.43800
N856        N  0.11404244  0.71022653  0.83225954    -0.43800
C857        C  0.35212440  0.01634561  0.51594697    -0.00200
C858        C  0.34951536  0.02145167  0.97197197    -0.12100
C859        C  0.34714686  0.00548922  0.93936988     0.02000
C860        C  0.35565073  0.98311620  0.94818743    -0.00300
C861        C  0.36402946  0.98001098  0.48603487    -0.12000
C862        C  0.36710939  0.99571673  0.51919238     0.01900
H863        H  0.34105034  0.03817792  0.96610043     0.14900
H864        H  0.37423226  0.96372671  0.48997558     0.14900
C865        C  0.38342851  0.98940428  0.55785365     0.36500
C866        C  0.33527380  0.01257676  0.89774666     0.36400
N867        N  0.39646325  0.98438523  0.58888710    -0.43800
N868        N  0.32589621  0.01843649  0.86443021    -0.43800
C869        C  0.36833023  0.95929319  0.76094032    -0.00200
C870        C  0.38248045  0.97924758  0.77133487    -0.12100
C871        C  0.38069379  0.99778578  0.74306583     0.02000
C872        C  0.36480576  0.99614785  0.70376851    -0.00300
C873        C  0.35493673  0.97513031  0.69071325    -0.12000
C874        C  0.35662247  0.95676238  0.71885897     0.01900
H875        H  0.39176674  0.98127707  0.80359794     0.14900
H876        H  0.34385550  0.97340583  0.65963351     0.14900
C877        C  0.34372673  0.93604868  0.70544378     0.36500
C878        C  0.39246525  0.01870549  0.75731586     0.36400
N879        N  0.33335018  0.91945152  0.69483956    -0.43800
N880        N  0.40195784  0.03545557  0.76881932    -0.43800
C881        C  0.32591179  0.86413127  0.89051614    -0.00200
C882        C  0.34619404  0.85174606  0.91526921    -0.12100
C883        C  0.34087169  0.82949480  0.92708257     0.02000
C884        C  0.31424662  0.81934570  0.91496236    -0.00300
C885        C  0.29384058  0.83203800  0.89086685    -0.12000
C886        C  0.29941487  0.85404397  0.87839045     0.01900
H887        H  0.36647444  0.85941529  0.92498840     0.14900
H888        H  0.27294308  0.82497244  0.88249938     0.14900
C889        C  0.27671650  0.86613607  0.85507256     0.36500
C890        C  0.36368445  0.81767476  0.95047208     0.36400
N891        N  0.25838124  0.87566779  0.83644418    -0.43800
N892        N  0.38238882  0.80871755  0.96932958    -0.43800
C893        C  0.24559521  0.04999468  0.66080251    -0.00200
C894        C  0.22888159  0.03156437  0.64917645    -0.12100
C895        C  0.19866031  0.03214971  0.65247770     0.02000
C896        C  0.18452134  0.05168788  0.66677765    -0.00300
C897        C  0.20130206  0.06956633  0.68160579    -0.12000
C898        C  0.23175065  0.06891865  0.67850798     0.01900
H899        H  0.23947330  0.01674096  0.63667345     0.14900
H900        H  0.19059733  0.08455059  0.69309392     0.14900
C901        C  0.24800878  0.08847468  0.69021441     0.36500
C902        C  0.18267245  0.01239303  0.64120176     0.36400
N903        N  0.26118907  0.10410703  0.69934405    -0.43800
N904        N  0.16982807  0.99653981  0.63249208    -0.43800
C905        C  0.18069892  0.94085634  0.88927013    -0.00200
C906        C  0.19742915  0.93400481  0.92553315    -0.12100
C907        C  0.22780928  0.93271645  0.92348719     0.02000
C908        C  0.24205932  0.93860556  0.88448335    -0.00300
C909        C  0.22529271  0.94596029  0.84861670    -0.12000
C910        C  0.19497798  0.94716043  0.85062100     0.01900
H911        H  0.18670392  0.92914853  0.95539627     0.14900
H912        H  0.23587482  0.95077087  0.81861284     0.14900
C913        C  0.17932646  0.95545367  0.81272964     0.36500
C914        C  0.24351443  0.92481332  0.96163057     0.36400
N915        N  0.16696006  0.96217173  0.78227652    -0.43800
N916        N  0.25610678  0.91845309  0.99216589    -0.43800
C917        C  0.06118225  0.97621706  0.79279660    -0.00200
C918        C  0.07067267  0.97137101  0.75078679    -0.12100
C919        C  0.07366385  0.98828898  0.71961294     0.02000
C920        C  0.06739743  0.01070837  0.73047973    -0.00300
C921        C  0.05473968  0.01520202  0.77083368    -0.12000
C922        C  0.05162576  0.99815225  0.80209395     0.01900
H923        H  0.07766663  0.95453601  0.74319602     0.14900
H924        H  0.04945062  0.03226531  0.77926845     0.14900
C925        C  0.04180775  0.00413005  0.84495338     0.36500
C926        C  0.08438462  0.98221692  0.67725735     0.36400
N927        N  0.03405947  0.00879603  0.87941782    -0.43800
N928        N  0.09301092  0.97737396  0.64336111    -0.43800
C929        C  0.06288879  0.02804954  0.54009534    -0.00200
C930        C  0.04925584  0.00786978  0.55092543    -0.12100
C931        C  0.05643985  0.99082339  0.02066397     0.02000
C932        C  0.07074798  0.99287566  0.98037666    -0.00300
C933        C  0.08152652  0.01383137  0.96786971    -0.12000
C934        C  0.07325631  0.03114957  0.49755626     0.01900
H935        H  0.04098422  0.00537512  0.58352850     0.14900
H936        H  0.09158302  0.01596422  0.93633984     0.14900
C937        C  0.08471642  0.05225654  0.48311462     0.36500
C938        C  0.04431678  0.96994902  0.03508907     0.36400
N939        N  0.09367950  0.06917614  0.47114895    -0.43800
N940        N  0.03461899  0.95319956  0.04664543    -0.43800
C941        C  0.08368785  0.87259358  0.91232691    -0.00200
C942        C  0.05937369  0.86008178  0.90008982    -0.12100
C943        C  0.06188555  0.83701014  0.89306268     0.02000
C944        C  0.08942733  0.82626766  0.89656378    -0.00300
C945        C  0.11316349  0.83862019  0.91130258    -0.12000
C946        C  0.11055207  0.86142706  0.91957783     0.01900
H947        H  0.03854333  0.86841056  0.89520429     0.14900
H948        H  0.13423904  0.83088321  0.91375118     0.14900
C949        C  0.13667427  0.87318641  0.93150121     0.36500
C950        C  0.03584086  0.82483835  0.88269471     0.36400
N951        N  0.15772780  0.88245227  0.94092502    -0.43800
N952        N  0.01484623  0.81518609  0.87457654    -0.43800
C953        C  0.32990177  0.16352112  0.61644099    -0.00200
C954        C  0.31518629  0.15001189  0.58685599    -0.12100
C955        C  0.31873063  0.12689628  0.58778272     0.02000
C956        C  0.33745778  0.11665155  0.61914976    -0.00300
C957        C  0.35227173  0.13021624  0.64889570    -0.12000
C958        C  0.34917280  0.15356433  0.64701585     0.01900
H959        H  0.30096920  0.15769395  0.56247466     0.14900
H960        H  0.36693376  0.12263167  0.67273019     0.14900
C961        C  0.36769176  0.16695166  0.67411051     0.36500
C962        C  0.30225826  0.11425508  0.55646904     0.36400
N963        N  0.38292741  0.17762177  0.69541355    -0.43800
N964        N  0.28911599  0.10417678  0.53127351    -0.43800
C965        C  0.36319200  0.25274347  0.94065747    -0.00200
C966        C  0.35194228  0.26620688  0.97375689    -0.12100
C967        C  0.34068877  0.25627048  0.51477637     0.02000
C968        C  0.34343247  0.23294007  0.52311527    -0.00300
C969        C  0.35518756  0.21982436  0.48936335    -0.12000
C970        C  0.36822837  0.22999424  0.94984210     0.01900
H971        H  0.34828527  0.28382638  0.96729345     0.14900
H972        H  0.35759194  0.20207391  0.49232339     0.14900
C973        C  0.38094008  0.21537037  0.91796337     0.36500
C974        C  0.32903248  0.27115880  0.54700533     0.36400
N975        N  0.39080130  0.20366267  0.89218952    -0.43800
N976        N  0.31984873  0.28299753  0.57312177    -0.43800
C977        C  0.35749655  0.25363181  0.77272615    -0.00200
C978        C  0.34525017  0.23219629  0.77126203    -0.12100
C979        C  0.33746714  0.22193530  0.73187353     0.02000
C980        C  0.34144794  0.23314683  0.69123121    -0.00300
C981        C  0.35351546  0.25468872  0.69305609    -0.12000
C982        C  0.36223140  0.26449076  0.73226576     0.01900
H983        H  0.34258990  0.22255719  0.80071572     0.14900
H984        H  0.35623512  0.26445796  0.66367979     0.14900
C985        C  0.37654068  0.28577692  0.72940773     0.36500
C986        C  0.32641621  0.19961307  0.73601105     0.36400
N987        N  0.38801227  0.30281385  0.72687043    -0.43800
N988        N  0.31749719  0.18179931  0.74108209    -0.43800
C989        C  0.11383059  0.17477774  0.65213854    -0.00200
C990        C  0.13535407  0.15947382  0.63985791    -0.12100
C991        C  0.12933680  0.13667242  0.63692767     0.02000
C992        C  0.10114260  0.12868545  0.64604533    -0.00300
C993        C  0.07936150  0.14399114  0.65753904    -0.12000
C994        C  0.08534423  0.16690626  0.65998506     0.01900
H995        H  0.15723026  0.16522002  0.63389892     0.14900
H996        H  0.05759155  0.13809221  0.66400231     0.14900
C997        C  0.06164426  0.18210897  0.66896505     0.36500
C998        C  0.15301864  0.12162761  0.62688201     0.36400
N999        N  0.04269674  0.19437769  0.67590768    -0.43800
N1000       N  0.17197790  0.10955942  0.61889289    -0.43800
C1001       C  0.19621165  0.22039227  0.63930904    -0.00200
C1002       C  0.21081559  0.19992421  0.64413440    -0.12100
C1003       C  0.24048810  0.19772760  0.63427397     0.02000
C1004       C  0.25621843  0.21635132  0.61862901    -0.00300
C1005       C  0.24130014  0.23683873  0.61352623    -0.12000
C1006       C  0.21174031  0.23901754  0.62406580     0.01900
H1007       H  0.19911150  0.18565579  0.65655895     0.14900
H1008       H  0.25290627  0.25133845  0.60188137     0.14900
C1009       C  0.19752716  0.26040462  0.61792770     0.36500
C1010       C  0.25361729  0.17596475  0.64016315     0.36400
N1011       N  0.18599137  0.27747392  0.61272630    -0.43800
N1012       N  0.26317569  0.15824924  0.64588626    -0.43800
C1013       C  0.44362189  0.27487800  0.86713797    -0.00200
C1014       C  0.45580411  0.29418154  0.88498339    -0.12100
C1015       C  0.48562925  0.29531824  0.89537984     0.02000
C1016       C  0.50409985  0.27684773  0.88816036    -0.00300
C1017       C  0.49206334  0.25740292  0.87106477    -0.12000
C1018       C  0.46232723  0.25625290  0.86034198     0.01900
H1019       H  0.44210713  0.30848730  0.89088219     0.14900
H1020       H  0.50599976  0.24293408  0.86642874     0.14900
C1021       C  0.45165880  0.23532676  0.84420097     0.36500
C1022       C  0.49644539  0.31532297  0.91517028     0.36400
N1023       N  0.44337073  0.21853792  0.83095400    -0.43800
N1024       N  0.00480445  0.33139404  0.93131100    -0.43800
C1025       C  0.10938445  0.24175309  0.57355988    -0.00200
C1026       C  0.08187311  0.25207434  0.56957777    -0.12100
C1027       C  0.07157706  0.26103116  0.52989893     0.02000
C1028       C  0.08766585  0.25656540  0.99230268    -0.00300
C1029       C  0.11553006  0.24829977  0.49522689    -0.12000
C1030       C  0.12657732  0.24047568  0.53556149     0.01900
H1031       H  0.06829431  0.25368292  0.59802059     0.14900
H1032       H  0.12874546  0.24456963  0.96733497     0.14900
C1033       C  0.15641587  0.23279587  0.53660373     0.36500
C1034       C  0.04741388  0.27491931  0.03376314     0.36400
N1035       N  0.18041082  0.22678924  0.53599802    -0.43800
N1036       N  0.02719607  0.28652100  0.03561640    -0.43800
C1037       C  0.09214931  0.25873717  0.82390572    -0.00200
C1038       C  0.11971722  0.24841504  0.82095513    -0.12100
C1039       C  0.13033877  0.24012574  0.78149041     0.02000
C1040       C  0.11491779  0.24410563  0.74177067    -0.00300
C1041       C  0.08699114  0.25388802  0.74497163    -0.12000
C1042       C  0.07536801  0.26063163  0.78503460     0.01900
H1043       H  0.13302163  0.24613785  0.84995236     0.14900
H1044       H  0.07307475  0.25500803  0.71642903     0.14900
C1045       C  0.04515283  0.26733163  0.78491661     0.36500
C1046       C  0.15610145  0.22616282  0.78393028     0.36400
N1047       N  0.02084250  0.27251849  0.78364337    -0.43800
N1048       N  0.17660864  0.21482590  0.78601944    -0.43800
C1049       C  0.33466910  0.62438281  0.64499134    -0.00200
C1050       C  0.34812741  0.63008365  0.68453779    -0.12100
C1051       C  0.35394498  0.65223178  0.69481759     0.02000
C1052       C  0.34547594  0.66955589  0.66590822    -0.00300
C1053       C  0.33227666  0.66405987  0.62605721    -0.12000
C1054       C  0.32696554  0.64169366  0.61526113     0.01900
H1055       H  0.35522258  0.61707110  0.70711770     0.14900
H1056       H  0.32577742  0.67728550  0.60355546     0.14900
C1057       C  0.31335630  0.63711340  0.57386598     0.36500
C1058       C  0.37016396  0.65661069  0.73421562     0.36400
N1059       N  0.30245191  0.63356517  0.54060693    -0.43800
N1060       N  0.38326520  0.66020067  0.76563990    -0.43800
C1061       C  0.31662074  0.48495098  0.95543533    -0.00200
C1062       C  0.32399286  0.50677251  0.94308149    -0.12100
C1063       C  0.32328894  0.52572734  0.47211663     0.02000
C1064       C  0.31199240  0.52251922  0.51412729    -0.00300
C1065       C  0.29968260  0.50180015  0.52491808    -0.12000
C1066       C  0.30172730  0.48368205  0.49639820     0.01900
H1067       H  0.33246719  0.50999701  0.91082505     0.14900
H1068       H  0.29094026  0.49913051  0.55718069     0.14900
C1069       C  0.29137268  0.46220571  0.51067624     0.36500
C1070       C  0.33354691  0.54574493  0.95931526     0.36400
N1071       N  0.28307125  0.44497702  0.52207092    -0.43800
N1072       N  0.34219443  0.56296888  0.94854896    -0.43800
C1073       C  0.31815613  0.46814845  0.76041449    -0.00200
C1074       C  0.30078861  0.48729135  0.76650309    -0.12100
C1075       C  0.30142474  0.50517770  0.73667814     0.02000
C1076       C  0.31976681  0.50394016  0.70016095    -0.00300
C1077       C  0.33422526  0.48373967  0.69162759    -0.12000
C1078       C  0.33342908  0.46589844  0.72107144     0.01900
H1079       H  0.28862731  0.48911979  0.79633365     0.14900
H1080       H  0.34734251  0.48216969  0.66264691     0.14900
C1081       C  0.34962158  0.44588382  0.71088250     0.36500
C1082       C  0.28489528  0.52509182  0.74620590     0.36400
N1083       N  0.36260667  0.42987580  0.70261085    -0.43800
N1084       N  0.27159527  0.54104248  0.75381402    -0.43800
C1085       C  0.34674822  0.36760108  0.88335562    -0.00200
C1086       C  0.32451702  0.35310994  0.87089697    -0.12100
C1087       C  0.33019128  0.33022845  0.86560076     0.02000
C1088       C  0.35890006  0.32166563  0.87079823    -0.00300
C1089       C  0.38068415  0.33606849  0.88514090    -0.12000
C1090       C  0.37490856  0.35874425  0.89168007     0.01900
H1091       H  0.30273497  0.35967930  0.86519203     0.14900
H1092       H  0.40260388  0.32988221  0.88953211     0.14900
C1093       C  0.39891061  0.37283387  0.90385440     0.36500
C1094       C  0.30601977  0.31582637  0.85621141     0.36400
N1095       N  0.41806315  0.38417552  0.91357949    -0.43800
N1096       N  0.28668812  0.30419428  0.84894684    -0.43800
C1097       C  0.49695017  0.44290160  0.87415184    -0.00200
C1098       C  0.48166244  0.44487923  0.83448638    -0.12100
C1099       C  0.45126539  0.44458031  0.83292061     0.02000
C1100       C  0.43534328  0.44212800  0.87181189    -0.00300
C1101       C  0.45058414  0.44090687  0.91160773    -0.12000
C1102       C  0.48102473  0.44134553  0.91316398     0.01900
H1103       H  0.49349204  0.44644707  0.80426533     0.14900
H1104       H  0.43870619  0.43930263  0.94177230     0.14900
C1105       C  0.49510754  0.44016390  0.95530785     0.36500
C1106       C  0.43726058  0.44686407  0.79081212     0.36400
N1107       N  0.50636368  0.43927591  0.98911709    -0.43800
N1108       N  0.42609785  0.44872853  0.75705068    -0.43800
C1109       C  0.09180144  0.37229022  0.88254207    -0.00200
C1110       C  0.11277268  0.35968257  0.90552461    -0.12100
C1111       C  0.10931856  0.33660705  0.91204321     0.02000
C1112       C  0.08360699  0.32590245  0.89736777    -0.00300
C1113       C  0.06309569  0.33864902  0.87350424    -0.12000
C1114       C  0.06697245  0.36148042  0.86595269     0.01900
H1115       H  0.13215758  0.36779192  0.91763544     0.14900
H1116       H  0.04338019  0.33101021  0.86162423     0.14900
C1117       C  0.04420507  0.37375236  0.84311964     0.36500
C1118       C  0.13326943  0.32429620  0.93172692     0.36400
N1119       N  0.02605539  0.38371621  0.82494763    -0.43800
N1120       N  0.15251923  0.31442983  0.94736982    -0.43800
C1121       C  0.49264990  0.55597402  0.62407681    -0.00200
C1122       C  0.47746614  0.56326295  0.66077977    -0.12100
C1123       C  0.44705144  0.56332500  0.66162065     0.02000
C1124       C  0.43112045  0.55612747  0.62489785    -0.00300
C1125       C  0.44628310  0.54863454  0.58835933    -0.12000
C1126       C  0.47667847  0.54832844  0.58765540     0.01900
H1127       H  0.48937394  0.56915027  0.68895125     0.14900
H1128       H  0.43433696  0.54286700  0.56011546     0.14900
C1129       C  0.49059864  0.54014247  0.54891855     0.36500
C1130       C  0.43298146  0.57139699  0.70027472     0.36400
N1131       N  0.00171487  0.53352236  0.51792755    -0.43800
N1132       N  0.42177517  0.57784437  0.73132606    -0.43800
C1133       C  0.11082256  0.52924086  0.51298943    -0.00200
C1134       C  0.12552539  0.50901553  0.52194931    -0.12100
C1135       C  0.12433498  0.49120072  0.49264391     0.02000
C1136       C  0.10590620  0.49269758  0.95244763    -0.00300
C1137       C  0.09062704  0.51270869  0.94389603    -0.12000
C1138       C  0.09098235  0.53026468  0.97333085     0.01900
H1139       H  0.13577021  0.50638087  0.55353920     0.14900
H1140       H  0.07729292  0.51440249  0.91472785     0.14900
C1141       C  0.07377069  0.54993334  0.96296510     0.36500
C1142       C  0.13743194  0.47020594  0.50576875     0.36400
N1143       N  0.05990675  0.56561503  0.95442575    -0.43800
N1144       N  0.14793920  0.45343249  0.51673515    -0.43800
C1145       C  0.11211249  0.51097556  0.70420463    -0.00200
C1146       C  0.12469237  0.51508699  0.74501831    -0.12100
C1147       C  0.12780273  0.49782379  0.77598013     0.02000
C1148       C  0.11838900  0.47609786  0.76578971    -0.00300
C1149       C  0.10899389  0.47162935  0.72333595    -0.12000
C1150       C  0.10595021  0.48878066  0.69251244     0.01900
H1151       H  0.12977609  0.53204507  0.75402681     0.14900
H1152       H  0.10199736  0.45495983  0.71515291     0.14900
C1153       C  0.09534977  0.48327178  0.64957379     0.36500
C1154       C  0.13724646  0.50342532  0.81941108     0.36400
N1155       N  0.08690653  0.47891171  0.61515095    -0.43800
N1156       N  0.14467853  0.50786546  0.85429737    -0.43800
C1157       C  0.07857144  0.62970772  0.62810403    -0.00200
C1158       C  0.06198023  0.63823822  0.59306961    -0.12100
C1159       C  0.05226054  0.66033665  0.59200797     0.02000
C1160       C  0.05989684  0.67494709  0.62588173    -0.00300
C1161       C  0.07590100  0.66645473  0.66166649    -0.12000
C1162       C  0.08505313  0.64393137  0.66323312     0.01900
H1163       H  0.05566350  0.62734246  0.56674959     0.14900
H1164       H  0.08186446  0.67751383  0.68783339     0.14900
C1165       C  0.10171895  0.63609496  0.70043388     0.36500
C1166       C  0.03338383  0.66732360  0.55644366     0.36400
N1167       N  0.11509547  0.62991349  0.73035505    -0.43800
N1168       N  0.01817245  0.67283524  0.52803222    -0.43800
In1169     In  0.58364393  0.56193863  0.12294762     1.36900
C1170       C  0.52600830  0.56098173  0.12308026     0.77500
O1171       O  0.57965296  0.52891855  0.15420781    -0.60900
O1172       O  0.61714367  0.54771533  0.17046875    -0.51900
C1173       C  0.60104949  0.54294509  0.04981826     0.70200
O1174       O  0.57672890  0.55243791  0.05408184    -0.46700
C1175       C  0.58945679  0.60560321  0.13430940     0.74900
O1176       O  0.54073796  0.56392815  0.08928427    -0.58600
O1177       O  0.58312288  0.59274640  0.16531326    -0.48700
O1178       O  0.54102778  0.55836713  0.15739180    -0.55000
C1179       C  0.60354289  0.52956346  0.17449643     0.85100
O1180       O  0.61819282  0.54527540  0.08177735    -0.56900
O1181       O  0.59751545  0.59574662  0.10041775    -0.60200
In1182     In  0.58740446  0.44259176  0.36818557     1.36900
C1183       C  0.52978998  0.44481223  0.37593598     0.77500
O1184       O  0.58666914  0.45171141  0.29803871    -0.60900
O1185       O  0.62589251  0.45724181  0.33287018    -0.51900
C1186       C  0.60173644  0.47474958  0.42380341     0.70200
O1187       O  0.58085894  0.47605813  0.39705417    -0.46700
C1188       C  0.59356169  0.39804283  0.37257057     0.74900
O1189       O  0.54300396  0.45136474  0.34250732    -0.58600
O1190       O  0.58421474  0.40848797  0.33957451    -0.48700
O1191       O  0.54634295  0.43749584  0.40592748    -0.55000
C1192       C  0.61146098  0.46036298  0.29819580     0.85100
O1193       O  0.61549447  0.45634054  0.42306113    -0.56900
O1194       O  0.60320377  0.41050331  0.40215428    -0.60200
In1195     In  0.84632171  0.43585238  0.37745149     1.36900
C1196       C  0.90390904  0.44028713  0.37854357     0.77500
O1197       O  0.84778058  0.46947848  0.40544154    -0.60900
O1198       O  0.81405459  0.44855903  0.42771108    -0.51900
C1199       C  0.82788600  0.45270251  0.30249924     0.70200
O1200       O  0.85200268  0.44278940  0.30742547    -0.46700
C1201       C  0.84135848  0.39188065  0.38716420     0.74900
O1202       O  0.88881027  0.43980289  0.34423200    -0.58600
O1203       O  0.85288008  0.40409588  0.41530897    -0.48700
O1204       O  0.88940401  0.43809349  0.41297722    -0.55000
C1205       C  0.82585345  0.46751165  0.42921902     0.85100
O1206       O  0.81137156  0.45170771  0.33510916    -0.56900
O1207       O  0.82854185  0.40243269  0.35683691    -0.60200
In1208     In  0.84298658  0.55505015  0.12076186     1.36900
C1209       C  0.90044613  0.55673583  0.12291681     0.77500
O1210       O  0.84574601  0.54499258  0.05168144    -0.60900
O1211       O  0.80650407  0.53793801  0.08476883    -0.51900
C1212       C  0.83038047  0.52173263  0.17428807     0.70200
O1213       O  0.85372603  0.52277331  0.15315298    -0.46700
C1214       C  0.83351569  0.59816436  0.13705514     0.74900
O1215       O  0.88525399  0.55540418  0.15669042    -0.58600
O1216       O  0.83187071  0.59047924  0.09914307    -0.48700
O1217       O  0.88601563  0.55697758  0.08784389    -0.55000
C1218       C  0.82155854  0.53533542  0.05104465     0.85100
O1219       O  0.81332373  0.53824316  0.16861943    -0.56900
O1220       O  0.83568053  0.58338191  0.16623249    -0.60200
C1221       C  0.57725975  0.26804839  0.44658476     0.86400
C1222       C  0.58424474  0.29298712  0.44321282    -0.53800
C1223       C  0.57614571  0.30309142  0.40482113     0.09300
C1224       C  0.56008948  0.28725076  0.37361702     0.20300
C1225       C  0.54439284  0.26644111  0.43750084    -0.54500
C1226       C  0.53507198  0.27702193  0.40048243     0.09400
C1227       C  0.59062977  0.25778119  0.40519904    -0.54100
C1228       C  0.58191625  0.26774597  0.36660637     0.10000
H1229       H  0.59477541  0.30183758  0.46951924     0.14500
H1230       H  0.55276368  0.29571870  0.34327899     0.00300
H1231       H  0.52952183  0.25727666  0.45805111     0.14800
H1232       H  0.60488992  0.24328755  0.40608433     0.14600
C1233       C  0.62816312  0.23465732  0.19921835     0.86400
C1234       C  0.62007293  0.20994072  0.19902050    -0.53800
C1235       C  0.62724519  0.19882064  0.16215397     0.09300
C1236       C  0.64301327  0.21347837  0.12846787     0.20300
C1237       C  0.66103407  0.23520533  0.18946084    -0.54500
C1238       C  0.66896525  0.22376046  0.15318257     0.09400
C1239       C  0.61459967  0.24443405  0.15679243    -0.54100
C1240       C  0.62206654  0.23349995  0.11925662     0.10000
H1241       H  0.60947220  0.20187475  0.22631912     0.14500
H1242       H  0.64930045  0.20383395  0.09952404     0.00300
H1243       H  0.67679642  0.24430312  0.20856686     0.14800
H1244       H  0.60145775  0.25953509  0.15641356     0.14600
C1245       C  0.86743075  0.26440458  0.31730326     0.86400
C1246       C  0.85653477  0.28841178  0.32348052    -0.53800
C1247       C  0.86559029  0.29810969  0.36131095     0.09300
C1248       C  0.88546679  0.28262487  0.38981734     0.20300
C1249       C  0.90054302  0.26567800  0.32204411    -0.54500
C1250       C  0.91049593  0.27457843  0.35997891     0.09400
C1251       C  0.85718554  0.25246908  0.35928674    -0.54100
C1252       C  0.86686090  0.26176172  0.39723428     0.10000
H1253       H  0.84297565  0.29705348  0.29951979     0.14500
H1254       H  0.89311584  0.29016862  0.42062565     0.00300
H1255       H  0.91499592  0.25985221  0.29676786     0.14800
H1256       H  0.84245711  0.23852509  0.35997037     0.14600
C1257       C  0.83656214  0.22282757  0.06609710     0.86400
C1258       C  0.84227035  0.19761065  0.07187353    -0.53800
C1259       C  0.83159738  0.18862142  0.10899948     0.09300
C1260       C  0.81554336  0.20551519  0.13781448     0.20300
C1261       C  0.80326999  0.22533224  0.07072973    -0.54500
C1262       C  0.79201752  0.21624946  0.10797922     0.09400
C1263       C  0.84920741  0.23264720  0.10830438    -0.54100
C1264       C  0.83797767  0.22413932  0.14653427     0.10000
H1265       H  0.85342342  0.18686446  0.04946650     0.14500
H1266       H  0.80582657  0.19807772  0.16688043     0.00300
H1267       H  0.78971993  0.23349918  0.04608832     0.14800
H1268       H  0.86592453  0.24522776  0.10717363     0.14600
In1269     In  0.58338781  0.94186878  0.39553723     1.36900
C1270       C  0.64100015  0.94304298  0.38754251     0.77500
O1271       O  0.59065064  0.97435312  0.42642418    -0.60900
O1272       O  0.55537437  0.95537811  0.45027098    -0.51900
C1273       C  0.56133615  0.96234151  0.32594096     0.70200
O1274       O  0.58339452  0.94970176  0.32483373    -0.46700
C1275       C  0.57646060  0.89819367  0.40802065     0.74900
O1276       O  0.62388237  0.94195478  0.35544687    -0.58600
O1277       O  0.58980058  0.91040360  0.43426073    -0.48700
O1278       O  0.62846705  0.94341734  0.42385500    -0.55000
C1279       C  0.56953487  0.97335805  0.45211327     0.85100
O1280       O  0.54788348  0.96195996  0.36154798    -0.56900
O1281       O  0.56264368  0.90872225  0.37857639    -0.60200
In1282     In  0.60226702  0.05935498  0.14651595     1.36900
C1283       C  0.65806329  0.05074887  0.16157806     0.77500
O1284       O  0.60447963  0.05083072  0.07647777    -0.60900
O1285       O  0.56368262  0.04739417  0.10727819    -0.51900
C1286       C  0.57863529  0.03005472  0.20078144     0.70200
O1287       O  0.60108405  0.02640885  0.17877616    -0.46700
C1288       C  0.60410810  0.10395259  0.14614324     0.74900
O1289       O  0.64410737  0.04283371  0.13000655    -0.58600
O1290       O  0.61349256  0.09212407  0.11569939    -0.48700
O1291       O  0.64308948  0.06252310  0.18697326    -0.55000
C1292       C  0.57891541  0.04364351  0.07420614     0.85100
O1293       O  0.56870295  0.04980464  0.19753215    -0.56900
O1294       O  0.59091499  0.09313623  0.17532548    -0.60200
In1295     In  0.82349956  0.93397395  0.36588892     1.36900
C1296       C  0.76650522  0.93960902  0.37422682     0.77500
O1297       O  0.82610860  0.93996645  0.29467496    -0.60900
O1298       O  0.86407533  0.94562011  0.33254988    -0.51900
C1299       C  0.83912714  0.96622102  0.41922796     0.70200
O1300       O  0.81972685  0.96834812  0.39026467    -0.46700
C1301       C  0.82579363  0.89004899  0.37747823     0.74900
O1302       O  0.78275906  0.93204334  0.40426105    -0.58600
O1303       O  0.81629343  0.89927331  0.34321502    -0.48700
O1304       O  0.77969065  0.94455342  0.33968728    -0.55000
C1305       C  0.85147891  0.94761988  0.29612088     0.85100
O1306       O  0.85100219  0.94707357  0.42108977    -0.56900
O1307       O  0.83732672  0.90319337  0.40420535    -0.60200
In1308     In  0.83690584  0.04888916  0.12201809     1.36900
C1309       C  0.78149149  0.04828550  0.14448471     0.77500
O1310       O  0.83319685  0.01539156  0.14967737    -0.60900
O1311       O  0.86925304  0.03459058  0.17110677    -0.51900
C1312       C  0.85464460  0.03059482  0.04961580     0.70200
O1313       O  0.82990256  0.03963777  0.05328239    -0.46700
C1314       C  0.84373817  0.09265314  0.11814250     0.74900
O1315       O  0.79065662  0.03999322  0.10965829    -0.58600
O1316       O  0.85117716  0.08158739  0.15174974    -0.48700
O1317       O  0.80076798  0.05704182  0.16795332    -0.55000
C1318       C  0.85577765  0.01625349  0.17297862     0.85100
O1319       O  0.87184924  0.03338541  0.08136382    -0.56900
O1320       O  0.83693221  0.08092486  0.08602745    -0.60200
C1321       C  0.55168990  0.73402643  0.08452682     0.86400
C1322       C  0.56260530  0.71004320  0.08780865    -0.53800
C1323       C  0.55530462  0.69886027  0.12480035     0.09300
C1324       C  0.53793095  0.71332810  0.15709461     0.20300
C1325       C  0.51876244  0.73316181  0.09332947    -0.54500
C1326       C  0.51130687  0.72198845  0.13054884     0.09400
C1327       C  0.56373881  0.74509084  0.12592963    -0.54100
C1328       C  0.55639340  0.73452933  0.16412177     0.10000
H1329       H  0.57524996  0.70239487  0.06215226     0.14500
H1330       H  0.53205870  0.70455603  0.18770625     0.00300
H1331       H  0.50254354  0.74160027  0.07312482     0.14800
H1332       H  0.57623637  0.76033477  0.12532023     0.14600
C1333       C  0.59281763  0.77181320  0.33358770     0.86400
C1334       C  0.58520789  0.79648281  0.34242506    -0.53800
C1335       C  0.59625526  0.80444616  0.38038678     0.09300
C1336       C  0.61447251  0.78724886  0.40648163     0.20300
C1337       C  0.62619721  0.77090216  0.33661788    -0.54500
C1338       C  0.63793066  0.77836487  0.37488341     0.09400
C1339       C  0.58234696  0.75968160  0.37506089    -0.54100
C1340       C  0.59346102  0.76769392  0.41353332     0.10000
H1341       H  0.57178892  0.80720570  0.32196726     0.14500
H1342       H  0.62303331  0.79438208  0.43698686     0.00300
H1343       H  0.63926245  0.76522030  0.30966972     0.14800
H1344       H  0.56688560  0.74616316  0.37375220     0.14600
C1345       C  0.84680631  0.72550377  0.22249700     0.86400
C1346       C  0.84135307  0.70031194  0.21816037    -0.53800
C1347       C  0.85016089  0.69138448  0.17953598     0.09300
C1348       C  0.86405041  0.70843473  0.14856916     0.20300
C1349       C  0.87983125  0.72753610  0.21371099    -0.54500
C1350       C  0.88873261  0.71871832  0.17543762     0.09400
C1351       C  0.83208496  0.73602091  0.18171790    -0.54100
C1352       C  0.84095024  0.72709342  0.14308526     0.10000
H1353       H  0.83099356  0.69044389  0.24332608     0.14500
H1354       H  0.87147771  0.70123175  0.11739248     0.00300
H1355       H  0.89585568  0.73450318  0.23548245     0.14800
H1356       H  0.81624437  0.74953307  0.18333696     0.14600
C1357       C  0.80188953  0.76407189  0.46983908     0.86400
C1358       C  0.81278775  0.78802096  0.46267491    -0.53800
C1359       C  0.80563046  0.79730583  0.42300706     0.09300
C1360       C  0.78744323  0.78172868  0.39404417     0.20300
C1361       C  0.76864938  0.76611011  0.46121328    -0.54500
C1362       C  0.76124424  0.77538221  0.42198539     0.09400
C1363       C  0.81320800  0.75099376  0.43015439    -0.54100
C1364       C  0.80579478  0.76031294  0.39066554     0.10000
H1365       H  0.82414460  0.79705381  0.48793119     0.14500
H1366       H  0.78132308  0.78889537  0.36175097     0.00300
H1367       H  0.75168689  0.76048197  0.48267240     0.14800
H1368       H  0.82634997  0.73589987  0.43302603     0.14600
C1369       C  0.83016943  0.73512854  0.09958634    -0.00200
C1370       C  0.85043835  0.74130269  0.06809637    -0.12100
C1371       C  0.84191406  0.75109083  0.52527459     0.02000
C1372       C  0.81190489  0.75422633  0.51468098    -0.00300
C1373       C  0.79136443  0.74466881  0.04762770    -0.12000
C1374       C  0.80035435  0.73635243  0.08854235     0.01900
H1375       H  0.87347354  0.74000713  0.07585844     0.10900
H1376       H  0.76830818  0.74521929  0.04129511     0.14900
C1377       C  0.77834333  0.72798759  0.11738376     0.36500
C1378       C  0.86453409  0.75519585  0.49409360     0.36400
N1379       N  0.76010628  0.72114042  0.13929659    -0.43800
N1380       N  0.88306894  0.75796950  0.46949888    -0.43800
C1381       C  0.83564760  0.73529874  0.26601212    -0.00200
C1382       C  0.85418838  0.74736596  0.29402276    -0.12100
C1383       C  0.84489998  0.75530793  0.33435274     0.02000
C1384       C  0.81630482  0.75162965  0.34825490    -0.00300
C1385       C  0.79711546  0.74071629  0.32018658    -0.12000
C1386       C  0.80632998  0.73268335  0.27961384     0.01900
H1387       H  0.87610397  0.75144778  0.28501091     0.14900
H1388       H  0.77478767  0.73835329  0.33005254     0.14900
C1389       C  0.78495209  0.72177502  0.25290701     0.36500
C1390       C  0.86502018  0.76806436  0.36006752     0.36400
N1391       N  0.76744223  0.71296789  0.23224147    -0.43800
N1392       N  0.88151080  0.77840832  0.37979537    -0.43800
C1393       C  0.73042264  0.77756020  0.40744848    -0.00200
C1394       C  0.71884058  0.76087868  0.38136588    -0.12100
C1395       C  0.68914834  0.76059269  0.37053224     0.02000
C1396       C  0.67013113  0.77780423  0.38504871    -0.00300
C1397       C  0.68214962  0.79462405  0.41114160    -0.12000
C1398       C  0.71181872  0.79450949  0.42267568     0.01900
H1399       H  0.73290276  0.74738424  0.37095064     0.14900
H1400       H  0.66843288  0.80789412  0.42308446     0.14900
C1401       C  0.72258880  0.81180113  0.45066406     0.36500
C1402       C  0.67915439  0.74146598  0.34688512     0.36400
N1403       N  0.73106465  0.82568824  0.47317793    -0.43800
N1404       N  0.67199472  0.72594254  0.32769242    -0.43800
C1405       C  0.91981837  0.71925825  0.16241692    -0.00200
C1406       C  0.93673754  0.69963326  0.16386980    -0.12100
C1407       C  0.96677490  0.70009325  0.15515046     0.02000
C1408       C  0.98025329  0.72050214  0.14437584    -0.00300
C1409       C  0.96313846  0.74007471  0.14334452    -0.12000
C1410       C  0.93332773  0.73960194  0.15225583     0.01900
H1411       H  0.92651138  0.68397492  0.17230574     0.14900
H1412       H  0.97311977  0.75587450  0.13527947     0.14900
C1413       C  0.91680044  0.76018332  0.14991953     0.36500
C1414       C  0.98286932  0.67931303  0.15609002     0.36400
N1415       N  0.90341951  0.77661280  0.14795604    -0.43800
N1416       N  0.49541362  0.66249299  0.15704359    -0.43800
C1417       C  0.56088319  0.74413935  0.04039841    -0.00200
C1418       C  0.58953114  0.75202708  0.03624148    -0.12100
C1419       C  0.60111787  0.75927095  0.49522846     0.02000
C1420       C  0.58312839  0.76005469  0.45756960    -0.00300
C1421       C  0.55422039  0.75309291  0.46177422    -0.12000
C1422       C  0.54339865  0.74495218  0.50126369     0.01900
H1423       H  0.60374502  0.75218779  0.06452986     0.14900
H1424       H  0.53991468  0.75330616  0.43355850     0.14900
C1425       C  0.51555383  0.73410982  0.49883947     0.36500
C1426       C  0.63198464  0.76325821  0.49352282     0.36400
N1427       N  0.49325466  0.72542961  0.49601407    -0.43800
N1428       N  0.65680566  0.76626206  0.49311006    -0.43800
C1429       C  0.56366016  0.74389835  0.20791459    -0.00200
C1430       C  0.57684867  0.73025387  0.23985709    -0.12100
C1431       C  0.58565273  0.73883261  0.28034974     0.02000
C1432       C  0.58122077  0.76174730  0.29033853    -0.00300
C1433       C  0.56693947  0.77507919  0.25822343    -0.12000
C1434       C  0.55807227  0.76643246  0.21801261     0.01900
H1435       H  0.58093412  0.71284759  0.23280922     0.14900
H1436       H  0.56269505  0.79253459  0.26306957     0.14900
C1437       C  0.54242365  0.78106086  0.18810583     0.36500
C1438       C  0.59914804  0.72348973  0.31104885     0.36400
N1439       N  0.52985108  0.79278748  0.16424738    -0.43800
N1440       N  0.60956046  0.71101873  0.33574301    -0.43800
C1441       C  0.86099066  0.01577003  0.01299470    -0.00200
C1442       C  0.83648804  0.02158959  0.47787230    -0.12100
C1443       C  0.83356024  0.00607719  0.44465027     0.02000
C1444       C  0.84622906  0.98453607  0.44950226    -0.00300
C1445       C  0.86955773  0.97797146  0.98794004    -0.12000
C1446       C  0.87241783  0.99408778  0.02025045     0.01900
H1447       H  0.82515792  0.03751131  0.47508118     0.14900
H1448       H  0.87662438  0.96099211  0.99492077     0.14900
C1449       C  0.88457085  0.98726230  0.06185078     0.36500
C1450       C  0.81630697  0.01261431  0.40702465     0.36400
N1451       N  0.89440111  0.98168351  0.09505076    -0.43800
N1452       N  0.80242143  0.01788221  0.37697383    -0.43800
C1453       C  0.86302578  0.96116919  0.26014041    -0.00200
C1454       C  0.87732968  0.98101168  0.27088600    -0.12100
C1455       C  0.87768818  0.99904484  0.24151642     0.02000
C1456       C  0.86424177  0.99691278  0.20042713    -0.00300
C1457       C  0.85391872  0.97597777  0.18771294    -0.12000
C1458       C  0.85299637  0.95820302  0.21719745     0.01900
H1459       H  0.88511614  0.98343203  0.30389863     0.14900
H1460       H  0.84436442  0.97396705  0.15560064     0.14900
C1461       C  0.83949169  0.93776518  0.20352779     0.36500
C1462       C  0.88864777  0.02013475  0.25631463     0.36400
N1463       N  0.82855470  0.92148888  0.19231413    -0.43800
N1464       N  0.89728786  0.03707201  0.26827761    -0.43800
C1465       C  0.82158179  0.86605670  0.38675735    -0.00200
C1466       C  0.84299129  0.85393018  0.40979859    -0.12100
C1467       C  0.83884596  0.83145234  0.42105261     0.02000
C1468       C  0.81233889  0.82083203  0.41024076    -0.00300
C1469       C  0.79100667  0.83313570  0.38709140    -0.12000
C1470       C  0.79538074  0.85541854  0.37521468     0.01900
H1471       H  0.86315332  0.86200812  0.41872492     0.14900
H1472       H  0.77029680  0.82559124  0.37935843     0.14900
C1473       C  0.77178333  0.86735047  0.35361130     0.36500
C1474       C  0.86259094  0.81980222  0.44260759     0.36400
N1475       N  0.75288352  0.87696107  0.33646369    -0.43800
N1476       N  0.88186323  0.81077994  0.46000238    -0.43800
C1477       C  0.75055246  0.04769074  0.15620316    -0.00200
C1478       C  0.73429524  0.02908444  0.14402484    -0.12100
C1479       C  0.70415251  0.02886929  0.14919949     0.02000
C1480       C  0.68979100  0.04777691  0.16597889    -0.00300
C1481       C  0.70628695  0.06565313  0.18132346    -0.12000
C1482       C  0.73653954  0.06574768  0.17664044     0.01900
H1483       H  0.74512420  0.01484127  0.12962414     0.14900
H1484       H  0.69538990  0.08022354  0.19432299     0.14900
C1485       C  0.75228107  0.08530625  0.18975259     0.36500
C1486       C  0.68851045  0.00908590  0.13702692     0.36400
N1487       N  0.76495763  0.10096748  0.20016682    -0.43800
N1488       N  0.67606052  0.99315226  0.12759931    -0.43800
C1489       C  0.67310212  0.94352238  0.38341383    -0.00200
C1490       C  0.69017522  0.94015585  0.42105090    -0.12100
C1491       C  0.72053257  0.93940772  0.41912038     0.02000
C1492       C  0.73456188  0.94201149  0.37868000    -0.00300
C1493       C  0.71756401  0.94624163  0.34123684    -0.12000
C1494       C  0.68714740  0.94698749  0.34316788     0.01900
H1495       H  0.67977235  0.93775110  0.45224516     0.14900
H1496       H  0.72801940  0.94857142  0.31005999     0.14900
C1497       C  0.67115484  0.95146434  0.30329935     0.36500
C1498       C  0.73654906  0.93606544  0.45934432     0.36400
N1499       N  0.65845558  0.95508163  0.27126876    -0.43800
N1500       N  0.74945100  0.93342018  0.49152078    -0.43800
C1501       C  0.55498177  0.97829255  0.28995494    -0.00200
C1502       C  0.56532994  0.97288038  0.24865993    -0.12100
C1503       C  0.57048957  0.98947462  0.21760328     0.02000
C1504       C  0.56588685  0.01215434  0.22801744    -0.00300
C1505       C  0.55175847  0.01733113  0.26697066    -0.12000
C1506       C  0.54601513  0.00052840  0.29789583     0.01900
H1507       H  0.57140079  0.95576761  0.24168446     0.14900
H1508       H  0.54713871  0.03460163  0.27464916     0.14900
C1509       C  0.53339310  0.00689301  0.33882632     0.36500
C1510       C  0.58153506  0.98273780  0.17583193     0.36400
N1511       N  0.52310601  0.01195093  0.37153839    -0.43800
N1512       N  0.59031058  0.97735261  0.14234266    -0.43800
C1513       C  0.56976348  0.02901179  0.03844254    -0.00200
C1514       C  0.55596243  0.00892298  0.04925698    -0.12100
C1515       C  0.54897163  0.99001628  0.52164874     0.02000
C1516       C  0.56285037  0.99231539  0.48107452    -0.00300
C1517       C  0.57329903  0.01336181  0.46868090    -0.12000
C1518       C  0.58114898  0.03178173  0.99642761     0.01900
H1519       H  0.54723628  0.00661948  0.08164271     0.14900
H1520       H  0.58270590  0.01573133  0.43674581     0.14900
C1521       C  0.59378280  0.05260835  0.98264486     0.36500
C1522       C  0.53612141  0.96926931  0.53526899     0.36400
N1523       N  0.60382809  0.06932566  0.97162273    -0.43800
N1524       N  0.52556964  0.95274003  0.54629656    -0.43800
C1525       C  0.58058273  0.87367010  0.40816157    -0.00200
C1526       C  0.55693913  0.85944138  0.40171762    -0.12100
C1527       C  0.56149760  0.83642900  0.39623889     0.02000
C1528       C  0.59013482  0.82760585  0.39484016    -0.00300
C1529       C  0.61352445  0.84164573  0.40340999    -0.12000
C1530       C  0.60902217  0.86441777  0.41045247     0.01900
H1531       H  0.53501924  0.86629015  0.40079573     0.14900
H1532       H  0.63551164  0.83509225  0.40224637     0.14900
C1533       C  0.63429476  0.87821236  0.41646292     0.36500
C1534       C  0.53661186  0.82201956  0.39307816     0.36400
N1535       N  0.65450520  0.88928388  0.42128486    -0.43800
N1536       N  0.51690400  0.81021650  0.39104833    -0.43800
C1537       C  0.83333185  0.16419496  0.11616086    -0.00200
C1538       C  0.81645609  0.15091394  0.08887241    -0.12100
C1539       C  0.81987226  0.12778253  0.08882741     0.02000
C1540       C  0.84063941  0.11730342  0.11683420    -0.00300
C1541       C  0.85743027  0.13061024  0.14460186    -0.12000
C1542       C  0.85445450  0.15398130  0.14357137     0.01900
H1543       H  0.80080052  0.15878996  0.06680785     0.14900
H1544       H  0.87357252  0.12282640  0.16592435     0.14900
C1545       C  0.87470750  0.16715021  0.16822417     0.36500
C1546       C  0.80129391  0.11530482  0.05998935     0.36400
N1547       N  0.89118566  0.17767692  0.18765712    -0.43800
N1548       N  0.78654365  0.10524041  0.03684456    -0.43800
C1549       C  0.86001444  0.25203555  0.44105300    -0.00200
C1550       C  0.84903013  0.26552158  0.47434438    -0.12100
C1551       C  0.84414583  0.25701238  0.01449146     0.02000
C1552       C  0.84786622  0.23379221  0.02335534    -0.00300
C1553       C  0.86090603  0.22089264  0.99035056    -0.12000
C1554       C  0.86360561  0.22905904  0.44948476     0.01900
H1555       H  0.84625296  0.28326956  0.46839383     0.14900
H1556       H  0.86521296  0.20339434  0.99438259     0.14900
C1557       C  0.87653693  0.21442253  0.41780759     0.36500
C1558       C  0.83188422  0.27182060  0.04636137     0.36400
N1559       N  0.88683291  0.20281681  0.39222960    -0.43800
N1560       N  0.82215841  0.28365390  0.07205018    -0.43800
C1561       C  0.85889308  0.25394831  0.27322442    -0.00200
C1562       C  0.84873590  0.23189853  0.27093786    -0.12100
C1563       C  0.84244997  0.22156939  0.23113124     0.02000
C1564       C  0.84559662  0.23341324  0.19106060    -0.00300
C1565       C  0.85631988  0.25532605  0.19353302    -0.12000
C1566       C  0.86389331  0.26515978  0.23319335     0.01900
H1567       H  0.84688577  0.22185550  0.30006600     0.14900
H1568       H  0.85890817  0.26527077  0.16432357     0.14900
C1569       C  0.87775571  0.28664303  0.23121897     0.36500
C1570       C  0.83411677  0.19848964  0.23406191     0.36400
N1571       N  0.88905034  0.30376997  0.22930567    -0.43800
N1572       N  0.82726030  0.18006714  0.23804918    -0.43800
C1573       C  0.62032250  0.17471872  0.15581158    -0.00200
C1574       C  0.64192920  0.16025222  0.14021425    -0.12100
C1575       C  0.63685019  0.13730998  0.13616248     0.02000
C1576       C  0.60968364  0.12830408  0.14824095    -0.00300
C1577       C  0.58793436  0.14277224  0.16319778    -0.12000
C1578       C  0.59276131  0.16580163  0.16609420     0.01900
H1579       H  0.66309553  0.16678265  0.13201528     0.14900
H1580       H  0.56685395  0.13613250  0.17166623     0.14900
C1581       C  0.56849992  0.18003391  0.17722421     0.36500
C1582       C  0.66039986  0.12324811  0.12136515     0.36400
N1583       N  0.54896715  0.19145711  0.18569566    -0.43800
N1584       N  0.67924118  0.11197305  0.10949665    -0.43800
C1585       C  0.69993273  0.22174753  0.13955716    -0.00200
C1586       C  0.71514663  0.20185010  0.14825765    -0.12100
C1587       C  0.74479221  0.19949428  0.13819735     0.02000
C1588       C  0.76010178  0.21747956  0.11889958    -0.00300
C1589       C  0.74450023  0.23739747  0.10995128    -0.12000
C1590       C  0.71484350  0.23964004  0.12015310     0.01900
H1591       H  0.70383824  0.18810454  0.16352945     0.14900
H1592       H  0.75559249  0.25145549  0.09545188     0.14900
C1593       C  0.69990835  0.26029026  0.10948807     0.36500
C1594       C  0.75820063  0.17810497  0.14740909     0.36400
N1595       N  0.68778880  0.27673573  0.10055696    -0.43800
N1596       N  0.76816307  0.16077857  0.15580423    -0.43800
C1597       C  0.94252742  0.27492007  0.37119245    -0.00200
C1598       C  0.95472782  0.29386310  0.39049940    -0.12100
C1599       C  0.98485362  0.29517560  0.39900523     0.02000
C1600       C  0.00357944  0.27733441  0.38813116    -0.00300
C1601       C  0.99143333  0.25809286  0.37048858    -0.12000
C1602       C  0.96144257  0.25668755  0.36195118     0.01900
H1603       H  0.94087541  0.30780795  0.39862911     0.14900
H1604       H  0.00550064  0.24392755  0.36381463     0.14900
C1605       C  0.95079507  0.23587656  0.34517643     0.36500
C1606       C  0.99594040  0.31471283  0.42022337     0.36400
N1607       N  0.94240825  0.21925361  0.33128968    -0.43800
N1608       N  0.50473486  0.33035813  0.43744972    -0.43800
C1609       C  0.61085470  0.24092792  0.07477269    -0.00200
C1610       C  0.58366736  0.25194968  0.07153306    -0.12100
C1611       C  0.57284189  0.26063599  0.03185907     0.02000
C1612       C  0.58755457  0.25806968  0.49094146    -0.00300
C1613       C  0.61517818  0.24599421  0.99573715    -0.12000
C1614       C  0.62690497  0.23853861  0.03587555     0.01900
H1615       H  0.57079214  0.25441123  0.10044309     0.14900
H1616       H  0.62974359  0.24768960  0.46741913     0.14900
C1617       C  0.65636756  0.23005452  0.03556138     0.36500
C1618       C  0.54516584  0.27423620  0.53136486     0.36400
N1619       N  0.67999958  0.22327335  0.03420075    -0.43800
N1620       N  0.52399664  0.28480603  0.53277860    -0.43800
C1621       C  0.59362571  0.26054587  0.32299406    -0.00200
C1622       C  0.62226401  0.25209198  0.32071356    -0.12100
C1623       C  0.63389450  0.24377625  0.28188067     0.02000
C1624       C  0.61792163  0.24554087  0.24209963    -0.00300
C1625       C  0.58901856  0.25364347  0.24476213    -0.12000
C1626       C  0.57684827  0.26086982  0.28411279     0.01900
H1627       H  0.63565340  0.25131206  0.34989571     0.14900
H1628       H  0.57495655  0.25323196  0.21635946     0.14900
C1629       C  0.54636895  0.26683072  0.28344784     0.36500
C1630       C  0.66141854  0.23206515  0.28534820     0.36400
N1631       N  0.52191732  0.27158974  0.28198531    -0.43800
N1632       N  0.68341174  0.22259227  0.28857538    -0.43800
C1633       C  0.83592394  0.62231279  0.14710659    -0.00200
C1634       C  0.84859597  0.62802823  0.18725414    -0.12100
C1635       C  0.85430234  0.65021028  0.19766563     0.02000
C1636       C  0.84622611  0.66749599  0.16842234    -0.00300
C1637       C  0.83409562  0.66192820  0.12789245    -0.12000
C1638       C  0.82921699  0.63958010  0.11680436     0.01900
H1639       H  0.85525050  0.61501366  0.21011689     0.14900
H1640       H  0.82823464  0.67509794  0.10489683     0.14900
C1641       C  0.81745103  0.63497015  0.07419466     0.36500
C1642       C  0.87034096  0.65464693  0.23720303     0.36400
N1643       N  0.80817343  0.63136024  0.03989347    -0.43800
N1644       N  0.88345669  0.65824997  0.26861192    -0.43800
C1645       C  0.81607179  0.48639186  0.45633717    -0.00200
C1646       C  0.82498931  0.50781389  0.44367648    -0.12100
C1647       C  0.82301443  0.52416730  0.97277909     0.02000
C1648       C  0.81372751  0.52005321  0.01560054    -0.00300
C1649       C  0.80304093  0.49885164  0.02658405    -0.12000
C1650       C  0.80468728  0.48119127  0.99698927     0.01900
H1651       H  0.83511885  0.51032527  0.41229385     0.14900
H1652       H  0.79611498  0.49549812  0.05962489     0.14900
C1653       C  0.79697953  0.45911770  0.01171650     0.36500
C1654       C  0.83520274  0.54681615  0.45842475     0.36400
N1655       N  0.79093809  0.44142102  0.02369630    -0.43800
N1656       N  0.84496050  0.56366304  0.44757359    -0.43800
C1657       C  0.82177232  0.46692932  0.26389202    -0.00200
C1658       C  0.80412356  0.48598087  0.26886041    -0.12100
C1659       C  0.80521111  0.50372828  0.23887106     0.02000
C1660       C  0.82425985  0.50246007  0.20316453    -0.00300
C1661       C  0.83958021  0.48246525  0.19603436    -0.12000
C1662       C  0.83827217  0.46471238  0.22567523     0.01900
H1663       H  0.79124886  0.48783974  0.29801022     0.14900
H1664       H  0.85344248  0.48092175  0.16783896     0.14900
C1665       C  0.85490173  0.44471787  0.21683266     0.36500
C1666       C  0.78832495  0.52357651  0.24754658     0.36400
N1667       N  0.86814151  0.42865067  0.20989850    -0.43800
N1668       N  0.77474936  0.53946400  0.25458669    -0.43800
C1669       C  0.84570205  0.36737065  0.38695447    -0.00200
C1670       C  0.82383193  0.35354410  0.37068997    -0.12100
C1671       C  0.82908306  0.33067109  0.36457584     0.02000
C1672       C  0.85717096  0.32143838  0.37304405    -0.00300
C1673       C  0.87845117  0.33517599  0.39108544    -0.12000
C1674       C  0.87304052  0.35782611  0.39820006     0.01900
H1675       H  0.80266245  0.36065047  0.36252289     0.14900
H1676       H  0.89991716  0.32850712  0.39789868     0.14900
C1677       C  0.89685064  0.37119140  0.41382091     0.36500
C1678       C  0.80499014  0.31708813  0.35087754     0.36400
N1679       N  0.91592331  0.38192381  0.42621003    -0.43800
N1680       N  0.78557274  0.30627319  0.34005557    -0.43800
C1681       C  0.99752841  0.44520554  0.37863190    -0.00200
C1682       C  0.98134027  0.45087266  0.34104765    -0.12100
C1683       C  0.95094560  0.44992337  0.34050967     0.02000
C1684       C  0.93595790  0.44299856  0.37823814    -0.00300
C1685       C  0.95202673  0.43826918  0.41635806    -0.12000
C1686       C  0.98246816  0.43939465  0.41695358     0.01900
H1687       H  0.99245969  0.45578739  0.31155665     0.14900
H1688       H  0.94081859  0.43332930  0.44575200     0.14900
C1689       C  0.99751380  0.43460376  0.45744986     0.36500
C1690       C  0.93586902  0.45641859  0.30081130     0.36400
N1691       N  0.00964181  0.43086770  0.48990773    -0.43800
N1692       N  0.92372510  0.46166527  0.26911565    -0.43800
C1693       C  0.59068841  0.37340104  0.37733959    -0.00200
C1694       C  0.61220819  0.36071352  0.39917210    -0.12100
C1695       C  0.60872240  0.33766725  0.40644810     0.02000
C1696       C  0.58243975  0.32708380  0.39413921    -0.00300
C1697       C  0.56149003  0.33972712  0.37099541    -0.12000
C1698       C  0.56548728  0.36245768  0.36210208     0.01900
H1699       H  0.63201226  0.36873874  0.40988324     0.14900
H1700       H  0.54140189  0.33203513  0.36065256     0.14900
C1701       C  0.54253088  0.37437359  0.33903436     0.36500
C1702       C  0.63314384  0.32512516  0.42416655     0.36400
N1703       N  0.52422071  0.38394367  0.32042754    -0.43800
N1704       N  0.65275936  0.31497316  0.43796083    -0.43800
C1705       C  0.99383750  0.56039979  0.12250266    -0.00200
C1706       C  0.97941231  0.55420300  0.16074274    -0.12100
C1707       C  0.94908883  0.55289923  0.16183203     0.02000
C1708       C  0.93251170  0.55798401  0.12399970    -0.00300
C1709       C  0.94688389  0.56435860  0.08587400    -0.12000
C1710       C  0.97718205  0.56558880  0.08469070     0.01900
H1711       H  0.99186896  0.55006028  0.18990596     0.14900
H1712       H  0.93439734  0.56844939  0.05670007     0.14900
C1713       C  0.99026371  0.57224976  0.04409260     0.36500
C1714       C  0.93580401  0.54570709  0.20192195     0.36400
N1715       N  0.50060740  0.57754903  0.01145615    -0.43800
N1716       N  0.92507473  0.53991366  0.23395683    -0.43800
C1717       C  0.60701388  0.52814442  0.01256520    -0.00200
C1718       C  0.62463827  0.50907900  0.01925390    -0.12100
C1719       C  0.62422056  0.49137969  0.98962039     0.02000
C1720       C  0.60849801  0.49364377  0.45319487    -0.00300
C1721       C  0.59651183  0.51470022  0.44251444    -0.12000
C1722       C  0.59747676  0.53234920  0.47184259     0.01900
H1723       H  0.63712222  0.50725101  0.04921120     0.14900
H1724       H  0.58512822  0.51717094  0.41175163     0.14900
C1725       C  0.58339174  0.55316408  0.45960759     0.36500
C1726       C  0.64138296  0.47168294  0.99964659     0.36400
N1727       N  0.57205336  0.56981480  0.44983204    -0.43800
N1728       N  0.65521540  0.45592602  0.00774796    -0.43800
C1729       C  0.61387941  0.51036127  0.20109805    -0.00200
C1730       C  0.62845459  0.51403810  0.24059067    -0.12100
C1731       C  0.63163527  0.49676762  0.27148649     0.02000
C1732       C  0.62020670  0.47547350  0.26255495    -0.00300
C1733       C  0.60926272  0.47120687  0.22080785    -0.12000
C1734       C  0.60606615  0.48838925  0.19007229     0.01900
H1735       H  0.63500638  0.53078535  0.24892916     0.14900
H1736       H  0.60090069  0.45481426  0.21343026     0.14900
C1737       C  0.59329859  0.48322614  0.14826734     0.36500
C1738       C  0.64323674  0.50212052  0.31387121     0.36400
N1739       N  0.58303531  0.47917875  0.11478969    -0.43800
N1740       N  0.65240603  0.50640455  0.34791790    -0.43800
C1741       C  0.58271637  0.62981842  0.13413396    -0.00200
C1742       C  0.56877389  0.63821724  0.09667154    -0.12100
C1743       C  0.55799783  0.65997789  0.09458357     0.02000
C1744       C  0.56247081  0.67462679  0.12973746    -0.00300
C1745       C  0.57593704  0.66622296  0.16787713    -0.12000
C1746       C  0.58565915  0.64383605  0.17057314     0.01900
H1747       H  0.56495818  0.62731130  0.06929791     0.14900
H1748       H  0.57934266  0.67718607  0.19517626     0.14900
C1749       C  0.59921617  0.63589152  0.21037654     0.36500
C1750       C  0.54112341  0.66637676  0.05648379     0.36400
N1751       N  0.61008501  0.62964386  0.24241352    -0.43800
N1752       N  0.52760871  0.67130992  0.02587586    -0.43800
In1753     In  0.58231608  0.56115743  0.62203189     1.36900
C1754       C  0.52480995  0.55727089  0.62432668     0.77500
O1755       O  0.57834126  0.52867660  0.65553417    -0.60900
O1756       O  0.61536524  0.54797077  0.67169500    -0.51900
C1757       C  0.60362562  0.54399056  0.54982573     0.70200
O1758       O  0.57945492  0.55399709  0.55153119    -0.46700
C1759       C  0.58545732  0.60544312  0.62752245     0.74900
O1760       O  0.54011001  0.55079377  0.59317677    -0.58600
O1761       O  0.58641155  0.59311521  0.66097427    -0.48700
O1762       O  0.53923751  0.56529767  0.65543917    -0.55000
C1763       C  0.60190614  0.52980518  0.67648482     0.85100
O1764       O  0.61897785  0.54533615  0.58402539    -0.56900
O1765       O  0.58736157  0.59499478  0.59235769    -0.60200
In1766     In  0.58699595  0.44083897  0.86914891     1.36900
C1767       C  0.52920467  0.44221062  0.87310071     0.77500
O1768       O  0.58595790  0.45087963  0.79958878    -0.60900
O1769       O  0.62490043  0.45690613  0.83495059    -0.51900
C1770       C  0.60011209  0.47357735  0.92333560     0.70200
O1771       O  0.57882814  0.47407464  0.89719348    -0.46700
C1772       C  0.59485161  0.39675618  0.87725393     0.74900
O1773       O  0.54305369  0.44434315  0.83820119    -0.58600
O1774       O  0.58978653  0.40649857  0.84158121    -0.48700
O1775       O  0.54516942  0.43931768  0.90630848    -0.55000
C1776       C  0.61031630  0.46020735  0.80045074     0.85100
O1777       O  0.61504387  0.45570236  0.92243672    -0.56900
O1778       O  0.59978975  0.40972871  0.90839917    -0.60200
In1779     In  0.84558205  0.43605748  0.87212426     1.36900
C1780       C  0.90319140  0.44024969  0.87203979     0.77500
O1781       O  0.84719616  0.46934641  0.90151673    -0.60900
O1782       O  0.81417624  0.44776403  0.92417385    -0.51900
C1783       C  0.82530687  0.45376116  0.79854613     0.70200
O1784       O  0.84934755  0.44357012  0.80174326    -0.46700
C1785       C  0.84164942  0.39202894  0.88298655     0.74900
O1786       O  0.88805124  0.43876241  0.83789185    -0.58600
O1787       O  0.85299957  0.40458722  0.91066086    -0.48700
O1788       O  0.88863209  0.43964769  0.90660034    -0.55000
C1789       C  0.82588097  0.46674228  0.92635075     0.85100
O1790       O  0.80983548  0.45276323  0.83226142    -0.56900
O1791       O  0.82844087  0.40220564  0.85252409    -0.60200
In1792     In  0.84114141  0.55680399  0.61981183     1.36900
C1793       C  0.89893793  0.55632975  0.62327906     0.77500
O1794       O  0.84289153  0.54853161  0.54983635    -0.60900
O1795       O  0.80465009  0.53972543  0.58395840    -0.51900
C1796       C  0.82666533  0.52342535  0.67223731     0.70200
O1797       O  0.84966875  0.52379907  0.65026486    -0.46700
C1798       C  0.83229761  0.60019040  0.63518577     0.74900
O1799       O  0.88333966  0.55789300  0.65656724    -0.58600
O1800       O  0.83031628  0.59233240  0.59742549    -0.48700
O1801       O  0.88478615  0.55480036  0.58815653    -0.55000
C1802       C  0.81929377  0.53801420  0.54959681     0.85100
O1803       O  0.81085894  0.54075754  0.66825648    -0.56900
O1804       O  0.83487406  0.58552752  0.66453959    -0.60200
C1805       C  0.57720315  0.26666734  0.94811712     0.86400
C1806       C  0.58496916  0.29140356  0.94504552    -0.53800
C1807       C  0.57720789  0.30181237  0.90689659     0.09300
C1808       C  0.56062388  0.28637938  0.87541397     0.20300
C1809       C  0.54420015  0.26585746  0.93933837    -0.54500
C1810       C  0.53528805  0.27654565  0.90206336     0.09400
C1811       C  0.58998528  0.25617552  0.90644881    -0.54100
C1812       C  0.58151563  0.26637897  0.86796055     0.10000
H1813       H  0.59533214  0.29997305  0.97183712     0.14500
H1814       H  0.55357224  0.29507781  0.84522024     0.00300
H1815       H  0.52906439  0.25713959  0.96020481     0.14800
H1816       H  0.60331173  0.24118581  0.90710421     0.14600
C1817       C  0.62444847  0.23371454  0.69817114     0.86400
C1818       C  0.61501324  0.20935437  0.69648076    -0.53800
C1819       C  0.62206311  0.19850384  0.65933019     0.09300
C1820       C  0.63922201  0.21299733  0.62683170     0.20300
C1821       C  0.65740036  0.23341746  0.68941021    -0.54500
C1822       C  0.66527080  0.22224513  0.65285694     0.09400
C1823       C  0.61187456  0.24441319  0.65582750    -0.54100
C1824       C  0.61953032  0.23372249  0.61803707     0.10000
H1825       H  0.60351716  0.20130358  0.72296577     0.14500
H1826       H  0.64546716  0.20369136  0.59735895     0.00300
H1827       H  0.67327665  0.24188123  0.70947346     0.14800
H1828       H  0.59919454  0.25974835  0.65558981     0.14600
C1829       C  0.86748550  0.26414077  0.81624557     0.86400
C1830       C  0.85703878  0.28830429  0.82229041    -0.53800
C1831       C  0.86710585  0.29826764  0.85924813     0.09300
C1832       C  0.88730452  0.28291533  0.88724887     0.20300
C1833       C  0.90080462  0.26513257  0.81944795    -0.54500
C1834       C  0.91155639  0.27445290  0.85657751     0.09400
C1835       C  0.85815287  0.25259171  0.85916161    -0.54100
C1836       C  0.86873709  0.26220891  0.89625228     0.10000
H1837       H  0.84283775  0.29684599  0.79900428     0.14500
H1838       H  0.89565618  0.29073120  0.91739418     0.00300
H1839       H  0.91474040  0.25874591  0.79403658     0.14800
H1840       H  0.84369765  0.23852721  0.86125869     0.14600
C1841       C  0.83234398  0.22208407  0.56608041     0.86400
C1842       C  0.83858082  0.19698597  0.57220675    -0.53800
C1843       C  0.82785287  0.18793902  0.60923424     0.09300
C1844       C  0.81145974  0.20473358  0.63787760     0.20300
C1845       C  0.79907694  0.22436861  0.57057092    -0.54500
C1846       C  0.78797674  0.21522179  0.60776639     0.09400
C1847       C  0.84480715  0.23206781  0.60830049    -0.54100
C1848       C  0.83359164  0.22365615  0.64671792     0.10000
H1849       H  0.85059280  0.18644621  0.55039747     0.14500
H1850       H  0.80145531  0.19705304  0.66647790     0.00300
H1851       H  0.78540750  0.23250246  0.54602305     0.14800
H1852       H  0.86155997  0.24459558  0.60690434     0.14600
In1853     In  0.59103482  0.94077022  0.89821685     1.36900
C1854       C  0.64862033  0.94087589  0.89257863     0.77500
O1855       O  0.59731720  0.97461390  0.92450221    -0.60900
O1856       O  0.56430017  0.95512342  0.95321456    -0.51900
C1857       C  0.56863273  0.96020043  0.82812226     0.70200
O1858       O  0.59222862  0.94928085  0.82775309    -0.46700
C1859       C  0.58215576  0.89728892  0.91129772     0.74900
O1860       O  0.63201652  0.93976505  0.85984980    -0.58600
O1861       O  0.59645222  0.90911136  0.93714383    -0.48700
O1862       O  0.63562054  0.94175436  0.92848594    -0.55000
C1863       C  0.57733006  0.97360732  0.95208809     0.85100
O1864       O  0.55428757  0.95836479  0.86279754    -0.56900
O1865       O  0.56904880  0.90819918  0.88169720    -0.60200
In1866     In  0.59617789  0.05997357  0.64659836     1.36900
C1867       C  0.65277188  0.05453896  0.66127424     0.77500
O1868       O  0.59774349  0.05043744  0.57686579    -0.60900
O1869       O  0.55758779  0.04643053  0.60925056    -0.51900
C1870       C  0.57725245  0.02929790  0.70224640     0.70200
O1871       O  0.59938384  0.02707132  0.67891492    -0.46700
C1872       C  0.59502769  0.10444038  0.64439713     0.74900
O1873       O  0.63928612  0.04581001  0.63005728    -0.58600
O1874       O  0.60384290  0.09262670  0.61354043    -0.48700
O1875       O  0.63712065  0.06617163  0.68600172    -0.55000
C1876       C  0.57237458  0.04276215  0.57566150     0.85100
O1877       O  0.56503578  0.04833002  0.69943027    -0.56900
O1878       O  0.58313953  0.09359860  0.67484866    -0.60200
In1879     In  0.83073839  0.93179842  0.86811006     1.36900
C1880       C  0.77397925  0.93674683  0.87931425     0.77500
O1881       O  0.83117446  0.93966268  0.79774490    -0.60900
O1882       O  0.87140498  0.94161729  0.83185488    -0.51900
C1883       C  0.84770596  0.96464566  0.91889372     0.70200
O1884       O  0.82879341  0.96699411  0.88923002    -0.46700
C1885       C  0.83152950  0.88787011  0.88021270     0.74900
O1886       O  0.79126884  0.93178829  0.91005564    -0.58600
O1887       O  0.82173083  0.89721746  0.84627914    -0.48700
O1888       O  0.78610995  0.93978557  0.84314229    -0.55000
C1889       C  0.85734994  0.94555388  0.79712757     0.85100
O1890       O  0.85815644  0.94508923  0.92274754    -0.56900
O1891       O  0.84465826  0.90076125  0.90577741    -0.60200
In1892     In  0.83246235  0.04835464  0.62870386     1.36900
C1893       C  0.77683211  0.04936996  0.65061824     0.77500
O1894       O  0.83034731  0.01485641  0.65803467    -0.60900
O1895       O  0.86694563  0.03430461  0.67540877    -0.51900
C1896       C  0.84699542  0.03026521  0.55436593     0.70200
O1897       O  0.82213265  0.03846393  0.56140453    -0.46700
C1898       C  0.84015392  0.09200300  0.62227811     0.74900
O1899       O  0.78612976  0.03979434  0.61720115    -0.58600
O1900       O  0.84601775  0.08149955  0.65719811    -0.48700
O1901       O  0.79621714  0.05820984  0.67379699    -0.55000
C1902       C  0.85410109  0.01576901  0.67852209     0.85100
O1903       O  0.86570828  0.03341946  0.58402026    -0.56900
O1904       O  0.83454085  0.07972421  0.59046901    -0.60200
C1905       C  0.55136881  0.73516061  0.58370728     0.86400
C1906       C  0.56064204  0.71068354  0.58490266    -0.53800
C1907       C  0.55347850  0.69928560  0.62173584     0.09300
C1908       C  0.53743230  0.71374485  0.65541942     0.20300
C1909       C  0.51860516  0.73538128  0.59366123    -0.54500
C1910       C  0.51095156  0.72374798  0.63021210     0.09400
C1911       C  0.56472881  0.74501403  0.62549336    -0.54100
C1912       C  0.55732065  0.73403944  0.66319331     0.10000
H1913       H  0.57211078  0.70289038  0.55820200     0.14500
H1914       H  0.53154612  0.70469071  0.68571160     0.00300
H1915       H  0.50264789  0.74478830  0.57472189     0.14800
H1916       H  0.57774052  0.76000811  0.62564242     0.14600
C1917       C  0.59304852  0.77055552  0.83384445     0.86400
C1918       C  0.58428136  0.79495590  0.84365009    -0.53800
C1919       C  0.59488224  0.80287135  0.88201987     0.09300
C1920       C  0.61399317  0.78581344  0.90731005     0.20300
C1921       C  0.62646810  0.77072295  0.83674031    -0.54500
C1922       C  0.63795959  0.77799109  0.87538644     0.09400
C1923       C  0.58335844  0.75761090  0.87480974    -0.54100
C1924       C  0.59397362  0.76556419  0.91363034     0.10000
H1925       H  0.57141163  0.80574165  0.82264983     0.14500
H1926       H  0.62224800  0.79280614  0.93807966     0.00300
H1927       H  0.63969665  0.76582067  0.80941417     0.14800
H1928       H  0.56873010  0.74358467  0.87283136     0.14600
C1929       C  0.84645636  0.72694426  0.72202855     0.86400
C1930       C  0.84098352  0.70185626  0.71646972    -0.53800
C1931       C  0.84951859  0.69338117  0.67742834     0.09300
C1932       C  0.86365020  0.71069993  0.64729623     0.20300
C1933       C  0.87949608  0.72896393  0.71349188    -0.54500
C1934       C  0.88834702  0.72056254  0.67475251     0.09400
C1935       C  0.83187106  0.73802746  0.68160339    -0.54100
C1936       C  0.84087518  0.72960477  0.64246805     0.10000
H1937       H  0.83096191  0.69160387  0.74135249     0.14500
H1938       H  0.87106331  0.70375864  0.61588498     0.00300
H1939       H  0.89542960  0.73552770  0.73592087     0.14800
H1940       H  0.81613438  0.75157572  0.68386665     0.14600
C1941       C  0.80157552  0.76220496  0.97182594     0.86400
C1942       C  0.81300654  0.78607007  0.96603498    -0.53800
C1943       C  0.80649674  0.79587511  0.92669672     0.09300
C1944       C  0.78803734  0.78090097  0.89674499     0.20300
C1945       C  0.76840711  0.76488329  0.96308364    -0.54500
C1946       C  0.76143394  0.77466893  0.92406116     0.09400
C1947       C  0.81280942  0.74941607  0.93174875    -0.54100
C1948       C  0.80582789  0.75924328  0.89259899     0.10000
H1949       H  0.82429384  0.79464816  0.99196229     0.14500
H1950       H  0.78232493  0.78847766  0.86465087     0.00300
H1951       H  0.75128235  0.75953312  0.98451242     0.14800
H1952       H  0.82567573  0.73416727  0.93419929     0.14600
C1953       C  0.83035761  0.73808483  0.59897740    -0.00200
C1954       C  0.85067961  0.74328043  0.56677646    -0.12100
C1955       C  0.84157534  0.74933275  0.02690004     0.02000
C1956       C  0.81152387  0.75172404  0.01598830    -0.00300
C1957       C  0.79172268  0.74852537  0.54740165    -0.12000
C1958       C  0.80058039  0.74027465  0.58842550     0.01900
H1959       H  0.87369674  0.74124414  0.57410026     0.10900
H1960       H  0.76862653  0.75015482  0.54201351     0.14900
C1961       C  0.77845860  0.73269852  0.61794084     0.36500
C1962       C  0.86417369  0.75464863  0.99639958     0.36400
N1963       N  0.76046337  0.72636636  0.64088657    -0.43800
N1964       N  0.88265368  0.75847224  0.97225604    -0.43800
C1965       C  0.83532008  0.73604535  0.76623326    -0.00200
C1966       C  0.85337049  0.74890557  0.79361585    -0.12100
C1967       C  0.84429817  0.75608250  0.83471213     0.02000
C1968       C  0.81638274  0.75091764  0.84986204    -0.00300
C1969       C  0.79770772  0.73900679  0.82260644    -0.12000
C1970       C  0.80665713  0.73176344  0.78131065     0.01900
H1971       H  0.87458515  0.75418650  0.78332125     0.14900
H1972       H  0.77595916  0.73528674  0.83362968     0.14900
C1973       C  0.78582604  0.71967393  0.75556582     0.36500
C1974       C  0.86393760  0.76931789  0.86034771     0.36400
N1975       N  0.76911987  0.70971008  0.73543854    -0.43800
N1976       N  0.87988828  0.77997472  0.88043037    -0.43800
C1977       C  0.73070902  0.77733926  0.90895263    -0.00200
C1978       C  0.71951453  0.76160340  0.88040778    -0.12100
C1979       C  0.68983384  0.76128854  0.86940150     0.02000
C1980       C  0.67032313  0.77771093  0.88578403    -0.00300
C1981       C  0.68203657  0.79370304  0.91426931    -0.12000
C1982       C  0.71173739  0.79351903  0.92607232     0.01900
H1983       H  0.73384000  0.74864948  0.86844181     0.14900
H1984       H  0.66818324  0.80610282  0.92834948     0.14900
C1985       C  0.72219124  0.80988307  0.95641080     0.36500
C1986       C  0.68038533  0.74253970  0.84424281     0.36400
N1987       N  0.73060990  0.82294787  0.98078897    -0.43800
N1988       N  0.67378559  0.72724116  0.82397081    -0.43800
C1989       C  0.91935340  0.72110240  0.66162044    -0.00200
C1990       C  0.93634591  0.70155428  0.66377189    -0.12100
C1991       C  0.96632172  0.70199214  0.65482446     0.02000
C1992       C  0.97980382  0.72237535  0.64382025    -0.00300
C1993       C  0.96249432  0.74187527  0.64173421    -0.12000
C1994       C  0.93260476  0.74133259  0.65008554     0.01900
H1995       H  0.92617243  0.68593742  0.67264523     0.14900
H1996       H  0.97231364  0.75764879  0.63307120     0.14900
C1997       C  0.91563694  0.76161152  0.64520559     0.36500
C1998       C  0.98221736  0.68113497  0.65533231     0.36400
N1999       N  0.90181250  0.77772757  0.64089844    -0.43800
N2000       N  0.49450804  0.66420030  0.65586872    -0.43800
C2001       C  0.56053714  0.74590396  0.54009098    -0.00200
C2002       C  0.58966627  0.75266960  0.53557420    -0.12100
C2003       C  0.60125003  0.75796187  0.99569306     0.02000
C2004       C  0.58379923  0.75739924  0.95749628    -0.00300
C2005       C  0.55556004  0.74888254  0.96128429    -0.12000
C2006       C  0.54482087  0.74104886  0.00109423     0.01900
H2007       H  0.60429797  0.75159251  0.56335814     0.14900
H2008       H  0.54175413  0.74765451  0.93269660     0.14900
C2009       C  0.51848212  0.72818992  0.99889422     0.36500
C2010       C  0.63204519  0.76227150  0.99437843     0.36400
N2011       N  0.49750807  0.71775346  0.99637066    -0.43800
N2012       N  0.65683655  0.76540708  0.99416424    -0.43800
C2013       C  0.56469539  0.74293042  0.70730028    -0.00200
C2014       C  0.57985695  0.72960763  0.73777863    -0.12100
C2015       C  0.58827130  0.73800214  0.77867276     0.02000
C2016       C  0.58180490  0.76046611  0.79026029    -0.00300
C2017       C  0.56531605  0.77328904  0.75970574    -0.12000
C2018       C  0.55675886  0.76476489  0.71921038     0.01900
H2019       H  0.58549450  0.71260950  0.72942794     0.14900
H2020       H  0.55869854  0.79012924  0.76623457     0.14900
C2021       C  0.53885741  0.77863712  0.69080291     0.36500
C2022       C  0.60289857  0.72276966  0.80841354     0.36400
N2023       N  0.52440836  0.78961356  0.66798586    -0.43800
N2024       N  0.61402038  0.71021632  0.83225386    -0.43800
C2025       C  0.85212229  0.01634286  0.51594810    -0.00200
C2026       C  0.84951262  0.02144718  0.97197538    -0.12100
C2027       C  0.84714283  0.00548361  0.93937599     0.02000
C2028       C  0.85564509  0.98311050  0.94819672    -0.00300
C2029       C  0.86402994  0.98000846  0.48603681    -0.12000
C2030       C  0.86710911  0.99571477  0.51919389     0.01900
H2031       H  0.84104830  0.03817348  0.96610146     0.14900
H2032       H  0.87423406  0.96372474  0.48997745     0.14900
C2033       C  0.88342913  0.98940364  0.55785516     0.36500
C2034       C  0.83526937  0.01257018  0.89775240     0.36400
N2035       N  0.89646454  0.98438572  0.58888868    -0.43800
N2036       N  0.82589121  0.01842901  0.86443573    -0.43800
C2037       C  0.86831675  0.95929730  0.76094979    -0.00200
C2038       C  0.88245915  0.97925429  0.77134918    -0.12100
C2039       C  0.88067103  0.99779232  0.74308027     0.02000
C2040       C  0.86479216  0.99615115  0.70377556    -0.00300
C2041       C  0.85492934  0.97513228  0.69071811    -0.12000
C2042       C  0.85661366  0.95676504  0.71886580     0.01900
H2043       H  0.89173951  0.98128553  0.80361577     0.14900
H2044       H  0.84385318  0.97340619  0.65963492     0.14900
C2045       C  0.84372052  0.93605066  0.70544907     0.36500
C2046       C  0.89242807  0.01871531  0.75733885     0.36400
N2047       N  0.83334512  0.91945321  0.69484397    -0.43800
N2048       N  0.90190785  0.03546837  0.76884954    -0.43800
C2049       C  0.82590908  0.86412576  0.89050464    -0.00200
C2050       C  0.84618771  0.85174337  0.91526995    -0.12100
C2051       C  0.84086526  0.82949278  0.92708802     0.02000
C2052       C  0.81424266  0.81934162  0.91496248    -0.00300
C2053       C  0.79384041  0.83203091  0.89085315    -0.12000
C2054       C  0.79941603  0.85403560  0.87836879     0.01900
H2055       H  0.86646539  0.85941437  0.92499581     0.14900
H2056       H  0.77294481  0.82496415  0.88247983     0.14900
C2057       C  0.77672281  0.86612284  0.85502992     0.36500
C2058       C  0.86367590  0.81767555  0.95048761     0.36400
N2059       N  0.75839177  0.87565018  0.83638359    -0.43800
N2060       N  0.88237831  0.80872036  0.96935317    -0.43800
C2061       C  0.74558750  0.04999329  0.66081132    -0.00200
C2062       C  0.72887293  0.03156191  0.64919480    -0.12100
C2063       C  0.69865171  0.03214865  0.65249790     0.02000
C2064       C  0.68451423  0.05168936  0.66678804    -0.00300
C2065       C  0.70129610  0.06956870  0.68160886    -0.12000
C2066       C  0.73174454  0.06891943  0.67851058     0.01900
H2067       H  0.73946367  0.01673681  0.63669794     0.14900
H2068       H  0.69059244  0.08455455  0.69309140     0.14900
C2069       C  0.74800439  0.08847573  0.69020994     0.36500
C2070       C  0.68266220  0.01239072  0.64123544     0.36400
N2071       N  0.76118652  0.10410799  0.69933422    -0.43800
N2072       N  0.66981627  0.99653654  0.63253746    -0.43800
C2073       C  0.68069353  0.94085117  0.88928540    -0.00200
C2074       C  0.69742382  0.93399497  0.92554499    -0.12100
C2075       C  0.72780386  0.93270657  0.92349756     0.02000
C2076       C  0.74205343  0.93860087  0.88449615    -0.00300
C2077       C  0.72528651  0.94596051  0.84863355    -0.12000
C2078       C  0.69497194  0.94716034  0.85063907     0.01900
H2079       H  0.68669871  0.92913491  0.95540577     0.14900
H2080       H  0.73586825  0.95077513  0.81863156     0.14900
C2081       C  0.67931957  0.95545902  0.81275281     0.36500
C2082       C  0.74350937  0.92479831  0.96163671     0.36400
N2083       N  0.66695193  0.96218142  0.78230433    -0.43800
N2084       N  0.75610207  0.91843391  0.99216855    -0.43800
C2085       C  0.56118835  0.97621220  0.79280425    -0.00200
C2086       C  0.57068512  0.97136798  0.75079683    -0.12100
C2087       C  0.57367672  0.98828682  0.71962487     0.02000
C2088       C  0.56740356  0.01070533  0.73049076    -0.00300
C2089       C  0.55474145  0.01519701  0.77084243    -0.12000
C2090       C  0.55162777  0.99814645  0.80210103     0.01900
H2091       H  0.57768292  0.95453388  0.74320664     0.14900
H2092       H  0.54944793  0.03225951  0.77927667     0.14900
C2093       C  0.54180482  0.00412276  0.84495875     0.36500
C2094       C  0.58440425  0.98221651  0.67727218     0.36400
N2095       N  0.53405285  0.00878737  0.87942197    -0.43800
N2096       N  0.59303619  0.97737514  0.64337824    -0.43800
C2097       C  0.56287806  0.02804884  0.54010737    -0.00200
C2098       C  0.54924652  0.00786838  0.55093665    -0.12100
C2099       C  0.55643080  0.99082118  0.02066714     0.02000
C2100       C  0.57074288  0.99287135  0.98038265    -0.00300
C2101       C  0.58152413  0.01382605  0.96787507    -0.12000
C2102       C  0.57324454  0.03115000  0.49756811     0.01900
H2103       H  0.54097540  0.00537293  0.58353977     0.14900
H2104       H  0.59158413  0.01595727  0.93634709     0.14900
C2105       C  0.58470201  0.05225800  0.48312722     0.36500
C2106       C  0.54430504  0.96994781  0.03509232     0.36400
N2107       N  0.59366282  0.06917853  0.47116282    -0.43800
N2108       N  0.53460506  0.95319898  0.04664822    -0.43800
C2109       C  0.58368860  0.87258824  0.91232749    -0.00200
C2110       C  0.55937341  0.86007511  0.90010033    -0.12100
C2111       C  0.56188690  0.83700405  0.89306715     0.02000
C2112       C  0.58943052  0.82626361  0.89655529    -0.00300
C2113       C  0.61316875  0.83861765  0.91128054    -0.12000
C2114       C  0.61055650  0.86142395  0.91955909     0.01900
H2115       H  0.53854092  0.86840250  0.89522654     0.14900
H2116       H  0.63424555  0.83088257  0.91371427     0.14900
C2117       C  0.63668117  0.87318518  0.93146286     0.36500
C2118       C  0.53584240  0.82483099  0.88270434     0.36400
N2119       N  0.65773708  0.88245229  0.94086974    -0.43800
N2120       N  0.51484777  0.81517795  0.87458964    -0.43800
C2121       C  0.82989240  0.16352169  0.61643848    -0.00200
C2122       C  0.81517448  0.15001371  0.58685402    -0.12100
C2123       C  0.81871716  0.12689794  0.58777830     0.02000
C2124       C  0.83744538  0.11665167  0.61914217    -0.00300
C2125       C  0.85226243  0.13021528  0.64888686    -0.12000
C2126       C  0.84916473  0.15356353  0.64700972     0.01900
H2127       H  0.80095656  0.15769692  0.56247497     0.14900
H2128       H  0.86692538  0.12262975  0.67271873     0.14900
C2129       C  0.86768551  0.16694969  0.67410392     0.36500
C2130       C  0.80224217  0.11425840  0.55646526     0.36400
N2131       N  0.88292236  0.17761911  0.69540645    -0.43800
N2132       N  0.78909758  0.10418156  0.53127009    -0.43800
C2133       C  0.86318762  0.25274086  0.94065913    -0.00200
C2134       C  0.85193646  0.26620495  0.97375654    -0.12100
C2135       C  0.84068359  0.25627157  0.51477692     0.02000
C2136       C  0.84342470  0.23294099  0.52311585    -0.00300
C2137       C  0.85517864  0.21982460  0.48936402    -0.12000
C2138       C  0.86822302  0.22999182  0.94984531     0.01900
H2139       H  0.84828001  0.28382442  0.96729165     0.14900
H2140       H  0.85757998  0.20207408  0.49232283     0.14900
C2141       C  0.88093540  0.21536723  0.91796829     0.36500
C2142       C  0.82902772  0.27116051  0.54700517     0.36400
N2143       N  0.89079704  0.20365900  0.89219576    -0.43800
N2144       N  0.81984418  0.28299984  0.57312083    -0.43800
C2145       C  0.85749740  0.25362808  0.77272783    -0.00200
C2146       C  0.84524729  0.23219389  0.77126325    -0.12100
C2147       C  0.83746275  0.22193388  0.73187445     0.02000
C2148       C  0.84144420  0.23314569  0.69123248    -0.00300
C2149       C  0.85351554  0.25468629  0.69305808    -0.12000
C2150       C  0.86223442  0.26448667  0.73226778     0.01900
H2151       H  0.84258571  0.22255485  0.80071681     0.14900
H2152       H  0.85623654  0.26445572  0.66368238     0.14900
C2153       C  0.87654951  0.28577053  0.72941011     0.36500
C2154       C  0.82641060  0.19961202  0.73601125     0.36400
N2155       N  0.88802601  0.30280545  0.72687309    -0.43800
N2156       N  0.81749088  0.18179843  0.74108175    -0.43800
C2157       C  0.61382106  0.17477894  0.65213700    -0.00200
C2158       C  0.63534508  0.15947478  0.63985932    -0.12100
C2159       C  0.62932802  0.13667324  0.63693031     0.02000
C2160       C  0.60113368  0.12868623  0.64604710    -0.00300
C2161       C  0.57935192  0.14399222  0.65753675    -0.12000
C2162       C  0.58533431  0.16690751  0.65998064     0.01900
H2163       H  0.65722159  0.16522094  0.63390202     0.14900
H2164       H  0.55758168  0.13809336  0.66399847     0.14900
C2165       C  0.56163366  0.18211050  0.66895501     0.36500
C2166       C  0.65301006  0.12162830  0.62688658     0.36400
N2167       N  0.54268537  0.19437932  0.67589254    -0.43800
N2168       N  0.67196932  0.10955989  0.61889867    -0.43800
C2169       C  0.69620393  0.22039246  0.63931364    -0.00200
C2170       C  0.71080872  0.19992484  0.64414093    -0.12100
C2171       C  0.74048130  0.19772864  0.63428032     0.02000
C2172       C  0.75621094  0.21635230  0.61863312    -0.00300
C2173       C  0.74129185  0.23683932  0.61352905    -0.12000
C2174       C  0.71173193  0.23901771  0.62406875     0.01900
H2175       H  0.69910513  0.18565648  0.65656669     0.14900
H2176       H  0.75289728  0.25133899  0.60188291     0.14900
C2177       C  0.69751802  0.26040442  0.61792886     0.36500
C2178       C  0.75361117  0.17596614  0.64017161     0.36400
N2179       N  0.68598180  0.27747338  0.61272575    -0.43800
N2180       N  0.76317023  0.15825102  0.64589666    -0.43800
C2181       C  0.94362388  0.27486877  0.86714267    -0.00200
C2182       C  0.95580697  0.29417238  0.88498640    -0.12100
C2183       C  0.98563239  0.29530850  0.89538176     0.02000
C2184       C  0.00410257  0.27683783  0.88816140    -0.00300
C2185       C  0.99206498  0.25739286  0.87106801    -0.12000
C2186       C  0.96232843  0.25624309  0.86034727     0.01900
H2187       H  0.94211056  0.30847842  0.89088434     0.14900
H2188       H  0.00600098  0.24292365  0.86643190     0.14900
C2189       C  0.95165870  0.23531681  0.84420880     0.36500
C2190       C  0.99644923  0.31531265  0.91517334     0.36400
N2191       N  0.94336946  0.21852783  0.83096401    -0.43800
N2192       N  0.50479971  0.33140504  0.93130636    -0.43800
C2193       C  0.60937970  0.24175761  0.57356344    -0.00200
C2194       C  0.58187063  0.25208275  0.56958171    -0.12100
C2195       C  0.57157627  0.26104066  0.52990290     0.02000
C2196       C  0.58765945  0.25657045  0.99230539    -0.00300
C2197       C  0.61552586  0.24830302  0.49523027    -0.12000
C2198       C  0.62657215  0.24047822  0.53556480     0.01900
H2199       H  0.56829221  0.25369332  0.59802439     0.14900
H2200       H  0.62873991  0.24457651  0.96733805     0.14900
C2201       C  0.65640949  0.23279562  0.53660663     0.36500
C2202       C  0.54740588  0.27492221  0.03376667     0.36400
N2203       N  0.68040353  0.22678675  0.53600064    -0.43800
N2204       N  0.52718715  0.28652287  0.03562122    -0.43800
C2205       C  0.59214275  0.25874010  0.82390851    -0.00200
C2206       C  0.61970870  0.24841477  0.82095881    -0.12100
C2207       C  0.63032928  0.24012423  0.78149454     0.02000
C2208       C  0.61490955  0.24410567  0.74177436    -0.00300
C2209       C  0.58698466  0.25389119  0.74497426    -0.12000
C2210       C  0.57536235  0.26063652  0.78503667     0.01900
H2211       H  0.63301247  0.24613627  0.84995644     0.14900
H2212       H  0.57306892  0.25501284  0.71643123     0.14900
C2213       C  0.54514883  0.26734118  0.78491676     0.36500
C2214       C  0.65608978  0.22615895  0.78393505     0.36400
N2215       N  0.52083993  0.27253208  0.78364149    -0.43800
N2216       N  0.67659525  0.21482022  0.78602491    -0.43800
C2217       C  0.83467273  0.62438234  0.64498775    -0.00200
C2218       C  0.84812869  0.63008343  0.68453576    -0.12100
C2219       C  0.85394521  0.65223165  0.69481632     0.02000
C2220       C  0.84547676  0.66955584  0.66590674    -0.00300
C2221       C  0.83228105  0.66405952  0.62605312    -0.12000
C2222       C  0.82697174  0.64169308  0.61525575     0.01900
H2223       H  0.85522276  0.61707095  0.70711650     0.14900
H2224       H  0.82578300  0.67728508  0.60355040     0.14900
C2225       C  0.81336648  0.63711252  0.57385779     0.36500
C2226       C  0.87016289  0.65661061  0.73421553     0.36400
N2227       N  0.80246539  0.63356422  0.54059643    -0.43800
N2228       N  0.88326322  0.66020065  0.76564054    -0.43800
C2229       C  0.81662372  0.48494479  0.95543574    -0.00200
C2230       C  0.82399415  0.50676628  0.94307966    -0.12100
C2231       C  0.82328646  0.52572127  0.47212843     0.02000
C2232       C  0.81199291  0.52251222  0.51414056    -0.00300
C2233       C  0.79968401  0.50179283  0.52493181    -0.12000
C2234       C  0.80172619  0.48367549  0.49640938     0.01900
H2235       H  0.83246812  0.50999026  0.91082262     0.14900
H2236       H  0.79094396  0.49912253  0.55719547     0.14900
C2237       C  0.79137138  0.46219889  0.51068566     0.36500
C2238       C  0.83354333  0.54573999  0.95930852     0.36400
N2239       N  0.78306952  0.44496999  0.52207847    -0.43800
N2240       N  0.84218794  0.56296434  0.94853961    -0.43800
C2241       C  0.81815926  0.46814529  0.76042216    -0.00200
C2242       C  0.80079313  0.48728863  0.76651413    -0.12100
C2243       C  0.80142936  0.50517584  0.73669120     0.02000
C2244       C  0.81977019  0.50393877  0.70017265    -0.00300
C2245       C  0.83422742  0.48373815  0.69163616    -0.12000
C2246       C  0.83343098  0.46589601  0.72107785     0.01900
H2247       H  0.78863281  0.48911660  0.79634592     0.14900
H2248       H  0.84734361  0.48216866  0.66265426     0.14900
C2249       C  0.84962135  0.44588099  0.71088486     0.36500
C2250       C  0.78490167  0.52509035  0.74622243     0.36400
N2251       N  0.86260460  0.42987263  0.70260935    -0.43800
N2252       N  0.77160311  0.54104128  0.75383346    -0.43800
C2253       C  0.84674864  0.36759508  0.88336352    -0.00200
C2254       C  0.82451958  0.35310436  0.87089494    -0.12100
C2255       C  0.83019508  0.33022331  0.86559699     0.02000
C2256       C  0.85890343  0.32166061  0.87080177    -0.00300
C2257       C  0.88068510  0.33606279  0.88515618    -0.12000
C2258       C  0.87490770  0.35873822  0.89169757     0.01900
H2259       H  0.80273839  0.35967378  0.86518309     0.14900
H2260       H  0.90260406  0.32987644  0.88955499     0.14900
C2261       C  0.89890703  0.37282786  0.90388401     0.36500
C2262       C  0.80602476  0.31582158  0.85619806     0.36400
N2263       N  0.91805683  0.38417001  0.91361882    -0.43800
N2264       N  0.78669420  0.30418979  0.84892550    -0.43800
C2265       C  0.99695412  0.44289702  0.87414385    -0.00200
C2266       C  0.98166440  0.44487828  0.83448075    -0.12100
C2267       C  0.95126735  0.44457795  0.83291813     0.02000
C2268       C  0.93534739  0.44212018  0.87181021    -0.00300
C2269       C  0.95059017  0.44089530  0.91160399    -0.12000
C2270       C  0.98103071  0.44133569  0.91315714     0.01900
H2271       H  0.99349253  0.44645024  0.80425887     0.14900
H2272       H  0.93871385  0.43928696  0.94176910     0.14900
C2273       C  0.99511572  0.44015082  0.95529907     0.36500
C2274       C  0.93726004  0.44686675  0.79081235     0.36400
N2275       N  0.00637415  0.43926042  0.98910650    -0.43800
N2276       N  0.92609504  0.44873533  0.75705332    -0.43800
C2277       C  0.59180451  0.37229492  0.88255125    -0.00200
C2278       C  0.61277646  0.35968607  0.90552958    -0.12100
C2279       C  0.60932183  0.33661039  0.91204448     0.02000
C2280       C  0.58360924  0.32590714  0.89736953    -0.00300
C2281       C  0.56309774  0.33865490  0.87350881    -0.12000
C2282       C  0.56697506  0.36148642  0.86596090     0.01900
H2283       H  0.63216198  0.36779469  0.91764044     0.14900
H2284       H  0.54338169  0.33101704  0.86162896     0.14900
C2285       C  0.54420776  0.37375999  0.84313085     0.36500
C2286       C  0.63327274  0.32429807  0.93172456     0.36400
N2287       N  0.52605823  0.38372513  0.82496133    -0.43800
N2288       N  0.65252263  0.31443065  0.94736457    -0.43800
C2289       C  0.99265104  0.55596841  0.62408420    -0.00200
C2290       C  0.97746863  0.56325509  0.66079019    -0.12100
C2291       C  0.94705393  0.56331672  0.66163391     0.02000
C2292       C  0.93112165  0.55612171  0.62491036    -0.00300
C2293       C  0.94628305  0.54862932  0.58837030    -0.12000
C2294       C  0.97667827  0.54832300  0.58766404     0.01900
H2295       H  0.98937758  0.56914127  0.68896178     0.14900
H2296       H  0.93433599  0.54286263  0.56012656     0.14900
C2297       C  0.99059686  0.54013661  0.54892642     0.36500
C2298       C  0.93298530  0.57138537  0.70029179     0.36400
N2299       N  0.50171792  0.53352875  0.51792034    -0.43800
N2300       N  0.92178016  0.57782978  0.73134633    -0.43800
C2301       C  0.61082210  0.52923787  0.51299673    -0.00200
C2302       C  0.62552219  0.50901146  0.52195669    -0.12100
C2303       C  0.62433145  0.49119748  0.49264956     0.02000
C2304       C  0.60590757  0.49270298  0.95245591    -0.00300
C2305       C  0.59063085  0.51271490  0.94390125    -0.12000
C2306       C  0.59098619  0.53027121  0.97333542     0.01900
H2307       H  0.63576507  0.50637542  0.55354775     0.14900
H2308       H  0.57729816  0.51440900  0.91473176     0.14900
C2309       C  0.57377649  0.54994067  0.96296805     0.36500
C2310       C  0.63742493  0.47020141  0.50577390     0.36400
N2311       N  0.55991427  0.56562311  0.95442774    -0.43800
N2312       N  0.64792918  0.45342660  0.51673901    -0.43800
C2313       C  0.61210553  0.51097795  0.70421737    -0.00200
C2314       C  0.62468600  0.51508976  0.74503047    -0.12100
C2315       C  0.62779666  0.49782685  0.77599280     0.02000
C2316       C  0.61838306  0.47610079  0.76580329    -0.00300
C2317       C  0.60898692  0.47163193  0.72335014    -0.12000
C2318       C  0.60594238  0.48878306  0.69252645     0.01900
H2319       H  0.62977013  0.53204788  0.75403799     0.14900
H2320       H  0.60199023  0.45496242  0.71516797     0.14900
C2321       C  0.59534004  0.48327404  0.64958886     0.36500
C2322       C  0.63724064  0.50342876  0.81942345     0.36400
N2323       N  0.58689513  0.47891408  0.61516695    -0.43800
N2324       N  0.64467276  0.50786896  0.85430966    -0.43800
C2325       C  0.57857429  0.62970802  0.62809703    -0.00200
C2326       C  0.56197567  0.63823699  0.59306887    -0.12100
C2327       C  0.55225701  0.66033573  0.59200735     0.02000
C2328       C  0.55990098  0.67494758  0.62587464    -0.00300
C2329       C  0.57591320  0.66645688  0.66165291    -0.12000
C2330       C  0.58506490  0.64393342  0.66321957     0.01900
H2331       H  0.55565278  0.62734001  0.56675439     0.14900
H2332       H  0.58188341  0.67751740  0.68781432     0.14900
C2333       C  0.60173991  0.63609849  0.70041238     0.36500
C2334       C  0.53337371  0.66732202  0.55645040     0.36400
N2335       N  0.61512408  0.62991774  0.73032654    -0.43800
N2336       N  0.51815674  0.67283343  0.52804546    -0.43800
loop_ 
_geom_bond_atom_site_label_1 
_geom_bond_atom_site_label_2 
_geom_bond_distance 
_geom_bond_site_symmetry_2 
_ccdc_geom_bond_type 
In1           O3   2.203       .  S
In1           O4   2.267       .  S
In1          O12   2.271       .  S
In1           O6   2.220       .  S
In1           O8   2.221       .  S
In1           O9   2.273       .  S
In1          O10   2.247       .  S
In1          O13   2.237       .  S
C2            O8   1.257       .  A
C2           O10   1.263       .  A
C2         C1705   1.480   1_455  S
O3           C11   1.259       .  A
O4           C11   1.267       .  A
C5           O12   1.264       .  A
C5            O6   1.258       .  A
C5          C549   1.483       .  S
C7            O9   1.258       .  A
C7           O13   1.260       .  A
C7          C573   1.482       .  S
C11         C561   1.477       .  S
In14         O16   2.219       .  S
In14         O17   2.265       .  S
In14         O25   2.282       .  S
In14         O19   2.223       .  S
In14         O21   2.237       .  S
In14         O22   2.241       .  S
In14         O23   2.247       .  S
In14         O26   2.289       .  S
C15          O21   1.260       .  A
C15          O23   1.262       .  A
C15        C1681   1.486   1_455  S
O16          C24   1.257       .  A
O17          C24   1.262       .  A
C18          O25   1.267       .  A
C18          O19   1.259       .  A
C18         C552   1.491       .  S
C20          O22   1.257       .  A
C20          O26   1.264       .  A
C20         C525   1.491       .  S
C24         C564   1.476       .  S
In27         O29   2.203       .  S
In27         O30   2.283       .  S
In27         O38   2.255       .  S
In27         O32   2.207       .  S
In27         O34   2.226       .  S
In27         O35   2.238       .  S
In27         O36   2.259       .  S
In27         O39   2.267       .  S
C28          O34   1.258       .  A
C28          O36   1.263       .  A
C28         C516   1.484       .  S
O29          C37   1.257       .  A
O30          C37   1.266       .  A
C31          O38   1.265       .  A
C31          O32   1.260       .  A
C31         C489   1.478       .  S
C33          O35   1.257       .  A
C33          O39   1.260       .  A
C33         C501   1.482       .  S
C37         C477   1.482       .  S
In40         O42   2.219       .  S
In40         O43   2.262       .  S
In40         O51   2.253       .  S
In40         O45   2.217       .  S
In40         O47   2.227       .  S
In40         O48   2.272       .  S
In40         O49   2.234       .  S
In40         O52   2.237       .  S
C41          O47   1.259       .  A
C41          O49   1.261       .  A
C41         C540   1.477       .  S
O42          C50   1.259       .  A
O43          C50   1.262       .  A
C44          O51   1.266       .  A
C44          O45   1.262       .  A
C44         C492   1.481       .  S
C46          O48   1.260       .  A
C46          O52   1.257       .  A
C46         C465   1.490       .  S
C50         C480   1.476       .  S
C53          C54   1.536       .  S
C53          C59   1.549       .  S
C53          C57   1.538       .  S
C53         C444   1.551       .  S
C54          H61   1.085       .  S
C54          C55   1.368       .  D
C55          C56   1.546       .  S
C55         C528   1.505       .  S
C56          C60   1.552       .  S
C56          C58   1.550       .  S
C56          H62   1.105       .  S
C57          H63   1.085       .  S
C57          C58   1.361       .  D
C58        C1600   1.493       .  S
C59          H64   1.083       .  S
C59          C60   1.377       .  D
C60         C453   1.515       .  S
C65          C66   1.533       .  S
C65          C71   1.548       .  S
C65          C69   1.544       .  S
C65         C456   1.552       .  S
C66          H73   1.086       .  S
C66          C67   1.363       .  D
C67          C68   1.543       .  S
C67         C405   1.498       .  S
C68          C72   1.554       .  S
C68          C70   1.546       .  S
C68          H74   1.106       .  S
C69          H75   1.084       .  S
C69          C70   1.367       .  D
C70         C417   1.492       .  S
C71          H76   1.084       .  S
C71          C72   1.378       .  D
C72         C441   1.518       .  S
C77          C78   1.534       .  S
C77          C83   1.549       .  S
C77          C81   1.531       .  S
C77         C393   1.549       .  S
C78          H85   1.085       .  S
C78          C79   1.369       .  D
C79          C80   1.554       .  S
C79         C504   1.497       .  S
C80          C84   1.540       .  S
C80          C82   1.554       .  S
C80          H86   1.110       .  S
C81          H87   1.085       .  S
C81          C82   1.365       .  D
C82         C429   1.510       .  S
C83          H88   1.082       .  S
C83          C84   1.371       .  D
C84         C381   1.500       .  S
C89          C90   1.541       .  S
C89          C95   1.542       .  S
C89          C93   1.544       .  S
C89         C384   1.559       .  S
C90          H97   1.078       .  S
C90          C91   1.356       .  D
C91          C92   1.540       .  S
C91         C369   1.481       .  S
C92          C96   1.552       .  S
C92          C94   1.543       .  S
C92          H98   1.096       .  S
C93          H99   1.086       .  S
C93          C94   1.371       .  D
C94         C420   1.509       .  S
C95         H100   1.083       .  S
C95          C96   1.383       .  D
C96         C396   1.522       .  S
In101       O103   2.204       .  S
In101       O104   2.279       .  S
In101       O112   2.260       .  S
In101       O106   2.219       .  S
In101       O108   2.242       .  S
In101       O109   2.236       .  S
In101       O110   2.244       .  S
In101       O113   2.278       .  S
C102        O108   1.259       .  A
C102        O110   1.261       .  A
C102        C321   1.483       .  S
O103        C111   1.259       .  A
O104        C111   1.267       .  A
C105        O112   1.263       .  A
C105        O106   1.261       .  A
C105        C333   1.480       .  S
C107        O109   1.256       .  A
C107        O113   1.261       .  A
C107        C357   1.481       .  S
C111        C348   1.483       .  S
In114       O116   2.222       .  S
In114       O117   2.263       .  S
In114       O125   2.283       .  S
In114       O119   2.203       .  S
In114       O121   2.220       .  S
In114       O122   2.240       .  S
In114       O123   2.253       .  S
In114       O126   2.278       .  S
C115        O121   1.259       .  A
C115        O123   1.263       .  A
C115        C312   1.472       .  S
O116        C124   1.258       .  A
O117        C124   1.261       .  A
C118        O125   1.268       .  A
C118        O119   1.258       .  A
C118        C336   1.484       .  S
C120        O122   1.257       .  A
C120        O126   1.265       .  A
C120        C408   1.488       .  S
C124        C345   1.475       .  S
In127       O129   2.220       .  S
In127       O130   2.251       .  S
In127       O138   2.260       .  S
In127       O132   2.207       .  S
In127       O134   2.226       .  S
In127       O135   2.230       .  S
In127       O136   2.245       .  S
In127       O139   2.262       .  S
C128        O134   1.260       .  A
C128        O136   1.262       .  A
C128        C324   1.482       .  S
O129        C137   1.259       .  A
O130        C137   1.260       .  A
C131        O138   1.267       .  A
C131        O132   1.259       .  A
C131        C276   1.485       .  S
C133        O135   1.257       .  A
C133        O139   1.262       .  A
C133        C297   1.479       .  S
C137        C285   1.472       .  S
In140       O142   2.183       .  S
In140       O143   2.265       .  S
In140       O151   2.245       .  S
In140       O145   2.212       .  S
In140       O147   2.228       .  S
In140       O148   2.273       .  S
In140       O149   2.244       .  S
In140       O152   2.207       .  S
C141        O147   1.260       .  A
C141        O149   1.260       .  A
C141        C309   1.471       .  S
O142        C150   1.258       .  A
O143        C150   1.269       .  A
C144        O151   1.264       .  A
C144        O145   1.262       .  A
C144        C273   1.472       .  S
C146        O148   1.265       .  A
C146        O152   1.258       .  A
C146        C372   1.484       .  S
C150        C288   1.474   1_545  S
C153        C154   1.521       .  S
C153        C159   1.543       .  S
C153        C157   1.542       .  S
C153        C249   1.545       .  S
C154        H161   1.087       .  S
C154        C155   1.361       .  D
C155        C156   1.548       .  S
C155        C576   1.493       .  S
C156        C160   1.552       .  S
C156        C158   1.547       .  S
C156        H162   1.110       .  S
C157        H163   1.084       .  S
C157        C158   1.368       .  D
C158       C1408   1.497   1_455  S
C159        H164   1.085       .  S
C159        C160   1.375       .  D
C160        C261   1.501       .  S
C165        C166   1.545       .  S
C165        C171   1.545       .  S
C165        C169   1.537       .  S
C165        C264   1.558       .  S
C166        H173   1.080       .  S
C166        C167   1.362       .  D
C167        C168   1.537       .  S
C167        C360   1.488       .  S
C168        C172   1.542       .  S
C168        C170   1.552       .  S
C168        H174   1.106       .  S
C169        H175   1.084       .  S
C169        C170   1.371       .  D
C170        C228   1.510       .  S
C171        H176   1.085       .  S
C171        C172   1.377       .  D
C172        C252   1.507       .  S
C177        C178   1.542       .  S
C177        C183   1.545       .  S
C177        C181   1.550       .  S
C177        C213   1.556       .  S
C178        H185   1.086       .  S
C178        C179   1.371       .  D
C179        C180   1.538       .  S
C179        C468   1.489       .  S
C180        C184   1.542       .  S
C180        C182   1.536       .  S
C180        H186   1.111       .  S
C181        H187   1.081       .  S
C181        C182   1.360       .  D
C182        C237   1.488       .  S
C183        H188   1.086       .  S
C183        C184   1.372       .  D
C184        C201   1.495       .  S
C189        C190   1.541       .  S
C189        C195   1.549       .  S
C189        C193   1.552       .  S
C189        C204   1.558       .  S
C190        H197   1.085       .  S
C190        C191   1.371       .  D
C191        C192   1.545       .  S
C191        C300   1.497       .  S
C192        C196   1.535       .  S
C192        C194   1.535       .  S
C192        H198   1.110       .  S
C193        H199   1.081       .  S
C193        C194   1.362       .  D
C194        C225   1.486       .  S
C195        H200   1.086       .  S
C195        C196   1.370       .  D
C196        C216   1.492       .  S
C201        C202   1.400       .  A
C201        C206   1.410       .  A
C202        C787   1.406       .  A
C202        H207   1.085       .  S
C203        C204   1.425       .  A
C203        C786   1.409       .  A
C203        C210   1.442       .  S
C204        C789   1.417       .  A
C205        C206   1.405       .  A
C205        C788   1.414       .  A
C205        H208   1.076       .  S
C206        C209   1.442       .  S
C209        N211   1.156       .  T
C210        N212   1.157       .  T
C213        C214   1.416       .  A
C213        C218   1.425       .  A
C214        C215   1.402       .  A
C214        H219   1.077       .  S
C215        C216   1.405       .  A
C215        C222   1.442       .  S
C216        C217   1.401       .  A
C217        C218   1.409       .  A
C217        H220   1.083       .  S
C218        C221   1.442       .  S
C221        N223   1.157       .  T
C222        N224   1.156       .  T
C225        C226   1.396       .  A
C225        C230   1.409       .  A
C226        C227   1.402       .  A
C226        H231   1.084       .  S
C227        C228   1.424       .  A
C227        C234   1.442       .  S
C228        C229   1.410       .  A
C229        C230   1.406       .  A
C229        H232   1.080       .  S
C230        C233   1.444       .  S
C233        N235   1.157       .  T
C234        N236   1.157       .  T
C237        C238   1.404       .  A
C237        C242   1.409       .  A
C238        C239   1.410       .  A
C238        H243   1.085       .  S
C239        C240   1.416       .  A
C239        C246   1.443       .  S
C240       C1326   1.497       .  S
C240        C241   1.406       .  A
C241        C242   1.401       .  A
C241        H244   1.085       .  S
C242        C245   1.444       .  S
C245        N247   1.157       .  T
C246       N1416   1.157       .  T
N248       C1414   1.157       .  T
C249        C250   1.411       .  A
C249        C838   1.425       .  A
C250        C835   1.407   1_554  A
C250        H255   1.083       .  S
C251        C252   1.417       .  A
C251        C834   1.407       .  A
C251        C258   1.443       .  S
C252        C253   1.404       .  A
C253        C254   1.401       .  A
C253        H256   1.084       .  S
C254        C833   1.426       .  A
C254        C257   1.444       .  S
C257        N259   1.158   1_455  T
C258        N260   1.157       .  T
C261        C262   1.401       .  A
C261        C266   1.412       .  A
C262        C263   1.410       .  A
C262        H267   1.084       .  S
C263        C264   1.425       .  A
C263        C270   1.443       .  S
C264        C265   1.416       .  A
C265        C266   1.405       .  A
C265        H268   1.075       .  S
C266        C269   1.446       .  S
C269        N271   1.157       .  T
C270        N272   1.157       .  T
C273        C278   1.412   1_545  A
C273        C858   1.400   1_554  A
C274        C275   1.396       .  A
C274        C857   1.399       .  A
C274        H279   1.085       .  S
C275        C276   1.418   1_545  A
C275        C282   1.445       .  S
C276        C861   1.406       .  A
C277        C278   1.400   1_556  A
C277        C860   1.404       .  A
C277        H280   1.085       .  S
C278        C281   1.444       .  S
C281        N283   1.157       .  T
C282        N284   1.157       .  T
C285        C286   1.407       .  A
C285        C290   1.408       .  A
C286        C287   1.402       .  A
C286        H291   1.085       .  S
C287        C288   1.409       .  A
C287        C294   1.443   1_565  S
C288        C289   1.405       .  A
C289        C290   1.393       .  A
C289        H292   1.085       .  S
C290        C293   1.445       .  S
C293        N295   1.157       .  T
C294        N296   1.157       .  T
C297        C298   1.400       .  A
C297        C302   1.413       .  A
C298        C299   1.404       .  A
C298        H303   1.085       .  S
C299        C300   1.419       .  A
C299        C306   1.442       .  S
C300        C301   1.405       .  A
C301        C302   1.399       .  A
C301        H304   1.084       .  S
C302        C305   1.446       .  S
C305        N307   1.158       .  T
C306        N308   1.157       .  T
C309        C310   1.402       .  A
C309        C314   1.411       .  A
C310        C311   1.397       .  A
C310        H315   1.085       .  S
C311        C312   1.411       .  A
C311        C318   1.445       .  S
C312        C313   1.403       .  A
C313        C314   1.400       .  A
C313        H316   1.085       .  S
C314        C317   1.444       .  S
C317        N319   1.157       .  T
C318        N320   1.157   1_545  T
C321        C322   1.404       .  A
C321        C326   1.415       .  A
C322        C323   1.398       .  A
C322        H327   1.085       .  S
C323        C324   1.414       .  A
C323        C330   1.445       .  S
C324        C325   1.405       .  A
C325        C326   1.400       .  A
C325        H328   1.085       .  S
C326        C329   1.445       .  S
C329        N331   1.158       .  T
C330        N332   1.157       .  T
C333        C334   1.400       .  A
C333        C338   1.416   1_565  A
C334        C335   1.396       .  A
C334        H339   1.085       .  S
C335        C336   1.415   1_565  A
C335        C342   1.446       .  S
C336        C337   1.404       .  A
C337        C338   1.407       .  A
C337        H340   1.084       .  S
C338        C341   1.444       .  S
C341        N343   1.157       .  T
C342        N344   1.157       .  T
C345        C346   1.406       .  A
C345        C350   1.407   1_554  A
C346        C931   1.405   1_545  A
C346        H351   1.085       .  S
C347        C348   1.413       .  A
C347        C930   1.407   1_565  A
C347        C354   1.443       .  S
C348        C349   1.406   1_565  A
C349        C934   1.396       .  A
C349        H352   1.085       .  S
C350        C933   1.397       .  A
C350        C353   1.444       .  S
C353        N355   1.157       .  T
C354        N356   1.157       .  T
C357        C358   1.403       .  A
C357        C362   1.416       .  A
C358        C359   1.406       .  A
C358        H363   1.084       .  S
C359        C360   1.415       .  A
C359        C366   1.444       .  S
C360        C361   1.398       .  A
C361        C362   1.399       .  A
C361        H364   1.082       .  S
C362        C365   1.445       .  S
C365        N367   1.157       .  T
C366        N368   1.157       .  T
C369        C370   1.399       .  A
C369        C374   1.411       .  A
C370        C371   1.395       .  A
C370        H375   1.086       .  S
C371        C372   1.417       .  A
C371        C378   1.446       .  S
C372        C373   1.406       .  A
C373        C374   1.407       .  A
C373        H376   1.084       .  S
C374        C377   1.442       .  S
C377        N379   1.157       .  T
C378        N380   1.157       .  T
C381        C382   1.406       .  A
C381        C386   1.408       .  A
C382        C967   1.414       .  A
C382        H387   1.084       .  S
C383        C384   1.425       .  A
C383        C966   1.414   1_554  A
C383        C390   1.444       .  S
C384        C385   1.417   1_554  A
C385        C970   1.400       .  A
C385        H388   1.072       .  S
C386        C969   1.400       .  A
C386        C389   1.446       .  S
C389        N391   1.157       .  T
C390        N392   1.157       .  T
C393        C394   1.410       .  A
C393        C398   1.418       .  A
C394        C395   1.407       .  A
C394        H399   1.079       .  S
C395        C396   1.425       .  A
C395        C402   1.443       .  S
C396        C397   1.411       .  A
C397        C398   1.403       .  A
C397        H400   1.081       .  S
C398        C401   1.445       .  S
C401        N403   1.157       .  T
C402        N404   1.158       .  T
C405        C406   1.403       .  A
C405        C410   1.418       .  A
C406        C407   1.405       .  A
C406        H411   1.084       .  S
C407        C408   1.417       .  A
C407        C414   1.445       .  S
C408        C409   1.401       .  A
C409        C410   1.405       .  A
C409        H412   1.085       .  S
C410        C413   1.443       .  S
C413        N415   1.157       .  T
C414        N416   1.158       .  T
C417        C418   1.399       .  A
C417        C422   1.410       .  A
C418        C419   1.406       .  A
C418        H423   1.084       .  S
C419        C420   1.422       .  A
C419        C426   1.442       .  S
C420        C421   1.410       .  A
C421        C422   1.407       .  A
C421        H424   1.084       .  S
C422        C425   1.443       .  S
C425        N427   1.157       .  T
C426        N428   1.157       .  T
C429        C430   1.407       .  A
C429        C434   1.423       .  A
C430        C431   1.410       .  A
C430        H435   1.079       .  S
C431        C432   1.411       .  A
C431        C438   1.443       .  S
C432       C1226   1.493       .  S
C432        C433   1.400       .  A
C433        C434   1.405       .  A
C433        H436   1.085       .  S
C434        C437   1.444       .  S
C437        N439   1.157       .  T
C438       N1608   1.157       .  T
N440       C1606   1.157   1_455  T
C441        C442   1.410       .  A
C441        C446   1.419       .  A
C442        C443   1.406       .  A
C442        H447   1.083       .  S
C443       C1028   1.422   1_554  A
C443       C1034   1.445       .  S
C444       C1027   1.423       .  A
C444       C1029   1.412       .  A
C445        C446   1.409   1_556  A
C445       C1028   1.412       .  A
C445       H1032   1.081       .  S
C446        C449   1.442       .  S
H448       C1029   1.082       .  S
C449        N451   1.157       .  T
C450       C1027   1.444       .  S
C450        N452   1.157       .  T
C453        C454   1.409       .  A
C453        C458   1.417       .  A
C454        C455   1.407       .  A
C454        H459   1.084       .  S
C455        C456   1.423       .  A
C455        C462   1.443       .  S
C456        C457   1.413       .  A
C457        C458   1.408       .  A
C457        H460   1.082       .  S
C458        C461   1.442       .  S
C461        N463   1.157       .  T
C462        N464   1.158       .  T
C465        C466   1.407       .  A
C465        C470   1.415       .  A
C466        C467   1.399       .  A
C466        H471   1.085       .  S
C467        C468   1.410       .  A
C467        C474   1.445       .  S
C468        C469   1.405       .  A
C469        C470   1.407       .  A
C469        H472   1.085       .  S
C470        C473   1.443       .  S
C473        N475   1.157       .  T
C474        N476   1.157       .  T
C477        C478   1.405       .  A
C477       C1066   1.412       .  A
C478       C1063   1.395       .  A
C478        H483   1.085       .  S
C479        C480   1.408   1_556  A
C479       C1062   1.395       .  A
C479       C1070   1.444       .  S
C480        C481   1.407       .  A
C481        C482   1.406   1_554  A
C481        H484   1.085       .  S
C482       C1061   1.412       .  A
C482        C485   1.444   1_556  S
C485        N487   1.157       .  T
C486       C1063   1.445       .  S
C486        N488   1.157       .  T
C489        C490   1.405       .  A
C489        C494   1.411       .  A
C490        C491   1.403       .  A
C490        H495   1.085       .  S
C491        C492   1.413       .  A
C491        C498   1.443       .  S
C492        C493   1.405       .  A
C493        C494   1.396       .  A
C493        H496   1.085       .  S
C494        C497   1.445       .  S
C497        N499   1.157       .  T
C498        N500   1.157       .  T
C501        C502   1.402       .  A
C501        C506   1.414       .  A
C502        C503   1.406       .  A
C502        H507   1.085       .  S
C503        C504   1.420       .  A
C503        C510   1.444       .  S
C504        C505   1.400       .  A
C505        C506   1.399       .  A
C505        H508   1.079       .  S
C506        C509   1.445       .  S
C509        N511   1.157       .  T
C510        N512   1.157       .  T
C513       C1183   1.486       .  S
C513        C514   1.405       .  A
C513        C518   1.414       .  A
C514        C515   1.399       .  A
C514        H519   1.085       .  S
C515        C516   1.415       .  A
C515        C522   1.446       .  S
C516        C517   1.404       .  A
C517        C518   1.402       .  A
C517        H520   1.085       .  S
C518        C521   1.443       .  S
C521        N523   1.157       .  T
C522        N524   1.158       .  T
C525        C526   1.403       .  A
C525        C530   1.416       .  A
C526        C527   1.409       .  A
C526        H531   1.085       .  S
C527        C528   1.421       .  A
C527        C534   1.444       .  S
C528        C529   1.403       .  A
C529        C530   1.402       .  A
C529        H532   1.083       .  S
C530        C533   1.445       .  S
C533        N535   1.157       .  T
C534        N536   1.158       .  T
C537       C1170   1.480       .  S
C537        C538   1.404       .  A
C537        C542   1.416       .  A
C538        C539   1.398       .  A
C538        H543   1.085       .  S
C539        C540   1.413       .  A
C539        C546   1.445       .  S
C540        C541   1.403       .  A
C541        C542   1.396       .  A
C541        H544   1.085       .  S
C542        C545   1.445       .  S
C545       N1715   1.157       .  T
C546        N548   1.157       .  T
N547       C1713   1.157   1_455  T
C549        C550   1.407       .  A
C549       C1138   1.411   1_554  A
C550        C551   1.407   1_554  A
C550        H555   1.085       .  S
C551       C1136   1.414       .  A
C551        C558   1.443       .  S
C552        C553   1.407       .  A
C552       C1135   1.414       .  A
C553        C554   1.399       .  A
C553        H556   1.085       .  S
C554       C1133   1.411       .  A
C554        C557   1.445       .  S
C557        N559   1.157       .  T
C558        N560   1.157   1_556  T
C561        C562   1.402       .  A
C561        C566   1.414       .  A
C562        C563   1.404       .  A
C562        H567   1.085       .  S
C563        C564   1.415       .  A
C563        C570   1.444       .  S
C564        C565   1.401       .  A
C565        C566   1.397       .  A
C565        H568   1.085       .  S
C566        C569   1.446       .  S
C569        N571   1.158       .  T
C570        N572   1.157       .  T
C573        C574   1.399       .  A
C573        C578   1.414       .  A
C574        C575   1.392       .  A
C574        H579   1.086       .  S
C575        C576   1.415       .  A
C575        C582   1.445       .  S
C576        C577   1.407       .  A
C577        C578   1.412       .  A
C577        H580   1.083       .  S
C578        C581   1.442       .  S
C581        N583   1.157       .  T
C582        N584   1.157       .  T
In585       O587   2.204       .  S
In585       O588   2.274       .  S
In585       O596   2.266       .  S
In585       O590   2.217       .  S
In585       O592   2.223       .  S
In585       O593   2.280       .  S
In585       O594   2.252       .  S
In585       O597   2.232       .  S
C586        O592   1.256       .  A
C586        O594   1.262       .  A
C586       C2289   1.481   1_455  S
O587        C595   1.258       .  A
O588        C595   1.267       .  A
C589        O596   1.265       .  A
C589        O590   1.259       .  A
C589       C1133   1.482       .  S
C591        O593   1.261       .  A
C591        O597   1.259       .  A
C591       C1157   1.487       .  S
C595       C1145   1.478       .  S
In598       O600   2.216       .  S
In598       O601   2.263       .  S
In598       O609   2.271       .  S
In598       O603   2.211       .  S
In598       O605   2.232       .  S
In598       O606   2.239       .  S
In598       O607   2.248       .  S
In598       O610   2.281       .  S
C599        O605   1.259       .  A
C599        O607   1.261       .  A
C599       C2265   1.484   1_455  S
O600        C608   1.257       .  A
O601        C608   1.262       .  A
C602        O609   1.268       .  A
C602        O603   1.260       .  A
C602       C1136   1.488       .  S
C604        O606   1.256       .  A
C604        O610   1.261       .  A
C604       C1109   1.483       .  S
C608       C1148   1.475       .  S
In611       O613   2.203       .  S
In611       O614   2.277       .  S
In611       O622   2.260       .  S
In611       O616   2.214       .  S
In611       O618   2.233       .  S
In611       O619   2.240       .  S
In611       O620   2.250       .  S
In611       O623   2.271       .  S
C612        O618   1.259       .  A
C612        O620   1.262       .  A
C612       C1100   1.484       .  S
O613        C621   1.258       .  A
O614        C621   1.267       .  A
C615        O622   1.264       .  A
C615        O616   1.260       .  A
C615       C1073   1.480       .  S
C617        O619   1.256       .  A
C617        O623   1.260       .  A
C617       C1085   1.482       .  S
C621       C1061   1.480       .  S
In624       O626   2.215       .  S
In624       O627   2.259       .  S
In624       O635   2.263       .  S
In624       O629   2.211       .  S
In624       O631   2.238       .  S
In624       O632   2.281       .  S
In624       O633   2.241       .  S
In624       O636   2.234       .  S
C625        O631   1.259       .  A
C625        O633   1.260       .  A
C625       C1124   1.480       .  S
O626        C634   1.261       .  A
O627        C634   1.263       .  A
C628        O635   1.266       .  A
C628        O629   1.260       .  A
C628       C1076   1.482       .  S
C630        O632   1.261       .  A
C630        O636   1.257       .  A
C630       C1049   1.490       .  S
C634       C1064   1.479       .  S
C637        C638   1.532       .  S
C637        C643   1.551       .  S
C637        C641   1.540       .  S
C637       C1028   1.552       .  S
C638        H645   1.085       .  S
C638        C639   1.366       .  D
C639        C640   1.548       .  S
C639       C1112   1.504       .  S
C640        C644   1.549       .  S
C640        C642   1.549       .  S
C640        H646   1.104       .  S
C641        H647   1.085       .  S
C641        C642   1.365       .  D
C642       C2184   1.492       .  S
C643        H648   1.083       .  S
C643        C644   1.378       .  D
C644       C1037   1.518       .  S
C649        C650   1.530       .  S
C649        C655   1.550       .  S
C649        C653   1.541       .  S
C649       C1040   1.550       .  S
C650        H657   1.087       .  S
C650        C651   1.361       .  D
C651        C652   1.545       .  S
C651        C989   1.495       .  S
C652        C656   1.550       .  S
C652        C654   1.545       .  S
C652        H658   1.108       .  S
C653        H659   1.085       .  S
C653        C654   1.365       .  D
C654       C1001   1.489       .  S
C655        H660   1.084       .  S
C655        C656   1.380       .  D
C656       C1025   1.513       .  S
C661        C662   1.536       .  S
C661        C667   1.550       .  S
C661        C665   1.536       .  S
C661        C977   1.553       .  S
C662        H669   1.085       .  S
C662        C663   1.369       .  D
C663        C664   1.550       .  S
C663       C1088   1.497       .  S
C664        C668   1.539       .  S
C664        C666   1.552       .  S
C664        H670   1.110       .  S
C665        H671   1.086       .  S
C665        C666   1.367       .  D
C666       C1013   1.507       .  S
C667        H672   1.081       .  S
C667        C668   1.371       .  D
C668        C965   1.498       .  S
C673        C674   1.539       .  S
C673        C679   1.543       .  S
C673        C677   1.542       .  S
C673        C968   1.559       .  S
C674        H681   1.078       .  S
C674        C675   1.355       .  D
C675        C676   1.541       .  S
C675        C953   1.481       .  S
C676        C680   1.557       .  S
C676        C678   1.541       .  S
C676        H682   1.096       .  S
C677        H683   1.086       .  S
C677        C678   1.368       .  D
C678       C1004   1.502       .  S
C679        H684   1.083       .  S
C679        C680   1.386       .  D
C680        C980   1.530       .  S
In685       O687   2.214       .  S
In685       O688   2.271       .  S
In685       O696   2.249       .  S
In685       O690   2.222       .  S
In685       O692   2.233       .  S
In685       O693   2.245       .  S
In685       O694   2.245       .  S
In685       O697   2.270       .  S
C686        O692   1.260       .  A
C686        O694   1.262       .  A
C686        C905   1.479       .  S
O687        C695   1.258       .  A
O688        C695   1.266       .  A
C689        O696   1.263       .  A
C689        O690   1.262       .  A
C689        C917   1.477       .  S
C691        O693   1.256       .  A
C691        O697   1.260       .  A
C691        C941   1.483       .  S
C695        C932   1.484       .  S
In698       O700   2.227       .  S
In698       O701   2.267       .  S
In698       O709   2.284       .  S
In698       O703   2.203       .  S
In698       O705   2.214       .  S
In698       O706   2.230       .  S
In698       O707   2.265       .  S
In698       O710   2.281       .  S
C699        O705   1.260       .  A
C699        O707   1.262       .  A
C699        C896   1.475       .  S
O700        C708   1.259       .  A
O701        C708   1.262       .  A
C702        O709   1.269       .  A
C702        O703   1.257       .  A
C702        C920   1.483       .  S
C704        O706   1.258       .  A
C704        O710   1.266       .  A
C704        C992   1.486       .  S
C708        C929   1.478       .  S
In711       O713   2.210       .  S
In711       O714   2.266       .  S
In711       O722   2.249       .  S
In711       O716   2.217       .  S
In711       O718   2.236       .  S
In711       O719   2.229       .  S
In711       O720   2.230       .  S
In711       O723   2.266       .  S
C712        O718   1.260       .  A
C712        O720   1.261       .  A
C712        C908   1.481       .  S
O713        C721   1.258       .  A
O714        C721   1.262       .  A
C715        O722   1.267       .  A
C715        O716   1.260       .  A
C715        C860   1.482       .  S
C717        O719   1.257       .  A
C717        O723   1.263       .  A
C717        C881   1.482       .  S
C721        C869   1.473       .  S
In724       O726   2.197       .  S
In724       O727   2.278       .  S
In724       O735   2.250       .  S
In724       O729   2.208       .  S
In724       O731   2.222       .  S
In724       O732   2.272       .  S
In724       O733   2.256       .  S
In724       O736   2.212       .  S
C725        O731   1.259       .  A
C725        O733   1.261       .  A
C725        C893   1.473       .  S
O726        C734   1.258       .  A
O727        C734   1.268       .  A
C728        O735   1.265       .  A
C728        O729   1.261       .  A
C728        C857   1.473       .  S
C730        O732   1.265       .  A
C730        O736   1.257       .  A
C730        C956   1.485       .  S
C734        C872   1.480   1_545  S
C737        C738   1.525       .  S
C737        C743   1.545       .  S
C737        C741   1.540       .  S
C737        C833   1.546       .  S
C738        H745   1.087       .  S
C738        C739   1.361       .  D
C739        C740   1.546       .  S
C739       C1160   1.490       .  S
C740        C744   1.550       .  S
C740        C742   1.549       .  S
C740        H746   1.110       .  S
C741        H747   1.083       .  S
C741        C742   1.367       .  D
C742       C1992   1.498   1_455  S
C743        H748   1.086       .  S
C743        C744   1.374       .  D
C744        C845   1.500       .  S
C749        C750   1.548       .  S
C749        C755   1.544       .  S
C749        C753   1.538       .  S
C749        C848   1.562       .  S
C750        H757   1.078       .  S
C750        C751   1.364       .  D
C751        C752   1.541       .  S
C751        C944   1.497       .  S
C752        C756   1.543       .  S
C752        C754   1.555       .  S
C752        H758   1.105       .  S
C753        H759   1.083       .  S
C753        C754   1.373       .  D
C754        C812   1.519       .  S
C755        H760   1.085       .  S
C755        C756   1.377       .  D
C756        C836   1.510       .  S
C761        C762   1.540       .  S
C761        C767   1.547       .  S
C761        C765   1.550       .  S
C761        C797   1.559       .  S
C762        H769   1.086       .  S
C762        C763   1.368       .  D
C763        C764   1.538       .  S
C763       C1052   1.489       .  S
C764        C768   1.541       .  S
C764        C766   1.536       .  S
C764        H770   1.111       .  S
C765        H771   1.082       .  S
C765        C766   1.362       .  D
C766        C821   1.486       .  S
C767        H772   1.086       .  S
C767        C768   1.376       .  D
C768        C785   1.500       .  S
C773        C774   1.539       .  S
C773        C779   1.548       .  S
C773        C777   1.552       .  S
C773        C788   1.553   1_556  S
C774        H781   1.085       .  S
C774        C775   1.369       .  D
C775        C776   1.547       .  S
C775        C884   1.497       .  S
C776        C780   1.535       .  S
C776        C778   1.537       .  S
C776        H782   1.110       .  S
C777        H783   1.080       .  S
C777        C778   1.364       .  D
C778        C809   1.489       .  S
C779        H784   1.086       .  S
C779        C780   1.369       .  D
C780        C800   1.494       .  S
C785        C786   1.402       .  A
C785        C790   1.408       .  A
C786        H791   1.085       .  S
C787        C788   1.424       .  A
C787        C794   1.442   1_554  S
C789        C790   1.405       .  A
C789        H792   1.076       .  S
C790        C793   1.443       .  S
C793        N795   1.157       .  T
C794        N796   1.157       .  T
C797        C798   1.417       .  A
C797        C802   1.426       .  A
C798        C799   1.405       .  A
C798        H803   1.078       .  S
C799        C800   1.406       .  A
C799        C806   1.443       .  S
C800        C801   1.401       .  A
C801        C802   1.410       .  A
C801        H804   1.083       .  S
C802        C805   1.443       .  S
C805        N807   1.157       .  T
C806        N808   1.157       .  T
C809        C810   1.395       .  A
C809        C814   1.408       .  A
C810        C811   1.403       .  A
C810        H815   1.083       .  S
C811        C812   1.425       .  A
C811        C818   1.440       .  S
C812        C813   1.413       .  A
C813        C814   1.409       .  A
C813        H816   1.072       .  S
C814        C817   1.444       .  S
C817        N819   1.157       .  T
C818        N820   1.157       .  T
C821        C822   1.403       .  A
C821        C826   1.407       .  A
C822        C823   1.408       .  A
C822        H827   1.085       .  S
C823        C824   1.416       .  A
C823        C830   1.442       .  S
C824       C1910   1.498       .  S
C824        C825   1.408       .  A
C825        C826   1.401       .  A
C825        H828   1.084       .  S
C826        C829   1.444       .  S
C829        N831   1.157       .  T
C830       N2000   1.157       .  T
N832       C1998   1.157       .  T
C833        C834   1.411       .  A
C834        H839   1.083       .  S
C835        C836   1.417       .  A
C835        C842   1.443       .  S
C836        C837   1.406       .  A
C837        C838   1.402   1_556  A
C837        H840   1.083       .  S
C838        C841   1.444   1_554  S
C841        N843   1.158   1_455  T
C842        N844   1.157       .  T
C845        C846   1.401       .  A
C845        C850   1.409       .  A
C846        C847   1.412       .  A
C846        H851   1.084       .  S
C847        C848   1.427       .  A
C847        C854   1.443       .  S
C848        C849   1.417       .  A
C849        C850   1.405       .  A
C849        H852   1.074       .  S
C850        C853   1.446       .  S
C853        N855   1.157       .  T
C854        N856   1.157       .  T
C857        C862   1.412   1_545  A
C858        C859   1.398       .  A
C858        H863   1.085       .  S
C859        C860   1.417   1_545  A
C859        C866   1.445       .  S
C861        C862   1.403       .  A
C861        H864   1.084       .  S
C862        C865   1.445       .  S
C865        N867   1.157       .  T
C866        N868   1.157       .  T
C869        C870   1.407       .  A
C869        C874   1.407       .  A
C870        C871   1.405       .  A
C870        H875   1.085       .  S
C871        C872   1.411       .  A
C871        C878   1.443   1_565  S
C872        C873   1.406       .  A
C873        C874   1.395       .  A
C873        H876   1.085       .  S
C874        C877   1.445       .  S
C877        N879   1.157       .  T
C878        N880   1.157       .  T
C881        C882   1.400       .  A
C881        C886   1.415       .  A
C882        C883   1.404       .  A
C882        H887   1.085       .  S
C883        C884   1.421       .  A
C883        C890   1.442       .  S
C884        C885   1.403       .  A
C885        C886   1.398       .  A
C885        H888   1.084       .  S
C886        C889   1.445       .  S
C889        N891   1.157       .  T
C890        N892   1.157       .  T
C893        C894   1.401       .  A
C893        C898   1.412       .  A
C894        C895   1.394       .  A
C894        H899   1.085       .  S
C895        C896   1.411       .  A
C895        C902   1.445       .  S
C896        C897   1.405       .  A
C897        C898   1.404       .  A
C897        H900   1.084       .  S
C898        C901   1.445       .  S
C901        N903   1.158       .  T
C902        N904   1.157   1_545  T
C905        C906   1.404       .  A
C905        C910   1.413       .  A
C906        C907   1.400       .  A
C906        H911   1.085       .  S
C907        C908   1.415       .  A
C907        C914   1.445       .  S
C908        C909   1.404       .  A
C909        C910   1.397       .  A
C909        H912   1.085       .  S
C910        C913   1.445       .  S
C913        N915   1.157       .  T
C914        N916   1.157       .  T
C917        C918   1.400       .  A
C917        C922   1.416       .  A
C918        C919   1.397       .  A
C918        H923   1.085       .  S
C919        C920   1.417   1_565  A
C919        C926   1.446       .  S
C920        C921   1.403       .  A
C921        C922   1.405   1_545  A
C921        H924   1.084       .  S
C922        C925   1.445   1_565  S
C925        N927   1.157       .  T
C926        N928   1.157       .  T
C929        C930   1.407       .  A
C929        C934   1.407       .  A
C930        H935   1.085       .  S
C931        C932   1.413   1_554  A
C931        C938   1.443       .  S
C932        C933   1.407   1_565  A
C933        H936   1.085       .  S
C934        C937   1.444       .  S
C937        N939   1.157       .  T
C938        N940   1.157       .  T
C941        C942   1.404       .  A
C941        C946   1.414       .  A
C942        C943   1.407       .  A
C942        H947   1.084       .  S
C943        C944   1.417       .  A
C943        C950   1.444       .  S
C944        C945   1.400       .  A
C945        C946   1.399       .  A
C945        H948   1.072       .  S
C946        C949   1.445       .  S
C949        N951   1.157       .  T
C950        N952   1.157       .  T
C953        C954   1.399       .  A
C953        C958   1.410       .  A
C954        C955   1.395       .  A
C954        H959   1.086       .  S
C955        C956   1.418       .  A
C955        C962   1.446       .  S
C956        C957   1.407       .  A
C957        C958   1.407       .  A
C957        H960   1.084       .  S
C958        C961   1.442       .  S
C961        N963   1.157       .  T
C962        N964   1.157       .  T
C965        C966   1.405       .  A
C965        C970   1.407       .  A
C966        H971   1.085       .  S
C967        C968   1.424       .  A
C967        C974   1.444       .  S
C968        C969   1.417       .  A
C969        H972   1.072       .  S
C970        C973   1.446       .  S
C973        N975   1.157       .  T
C974        N976   1.157       .  T
C977        C978   1.410       .  A
C977        C982   1.418       .  A
C978        C979   1.409       .  A
C978        H983   1.078       .  S
C979        C980   1.427       .  A
C979        C986   1.442       .  S
C980        C981   1.413       .  A
C981        C982   1.404       .  A
C981        H984   1.080       .  S
C982        C985   1.445       .  S
C985        N987   1.157       .  T
C986        N988   1.158       .  T
C989        C990   1.400       .  A
C989        C994   1.419       .  A
C990        C991   1.402       .  A
C990        H995   1.083       .  S
C991        C992   1.416       .  A
C991        C998   1.445       .  S
C992        C993   1.402       .  A
C993        C994   1.407       .  A
C993        H996   1.084       .  S
C994        C997   1.444       .  S
C997        N999   1.157       .  T
C998       N1000   1.157       .  T
C1001      C1002   1.399       .  A
C1001      C1006   1.411       .  A
C1002      C1003   1.405       .  A
C1002      H1007   1.084       .  S
C1003      C1004   1.419       .  A
C1003      C1010   1.442       .  S
C1004      C1005   1.408       .  A
C1005      C1006   1.405       .  A
C1005      H1008   1.085       .  S
C1006      C1009   1.444       .  S
C1009      N1011   1.157       .  T
C1010      N1012   1.157       .  T
C1013      C1014   1.406       .  A
C1013      C1018   1.421       .  A
C1014      C1015   1.408       .  A
C1014      H1019   1.077       .  S
C1015      C1016   1.410       .  A
C1015      C1022   1.442       .  S
C1016      C1810   1.492       .  S
C1016      C1017   1.402       .  A
C1017      C1018   1.406       .  A
C1017      H1020   1.085       .  S
C1018      C1021   1.444       .  S
C1021      N1023   1.157       .  T
C1022      N2192   1.157       .  T
N1024      C2190   1.157   1_455  T
C1025      C1026   1.406       .  A
C1025      C1030   1.419       .  A
C1026      C1027   1.404       .  A
C1026      H1031   1.084       .  S
C1029      C1030   1.410       .  A
C1030      C1033   1.442       .  S
C1033      N1035   1.157       .  T
C1034      N1036   1.158       .  T
C1037      C1038   1.409       .  A
C1037      C1042   1.419       .  A
C1038      C1039   1.406       .  A
C1038      H1043   1.083       .  S
C1039      C1040   1.423       .  A
C1039      C1046   1.444       .  S
C1040      C1041   1.411       .  A
C1041      C1042   1.409       .  A
C1041      H1044   1.082       .  S
C1042      C1045   1.442       .  S
C1045      N1047   1.157       .  T
C1046      N1048   1.158       .  T
C1049      C1050   1.406       .  A
C1049      C1054   1.416       .  A
C1050      C1051   1.397       .  A
C1050      H1055   1.085       .  S
C1051      C1052   1.410       .  A
C1051      C1058   1.444       .  S
C1052      C1053   1.406       .  A
C1053      C1054   1.409       .  A
C1053      H1056   1.085       .  S
C1054      C1057   1.443       .  S
C1057      N1059   1.157       .  T
C1058      N1060   1.157       .  T
C1061      C1062   1.405       .  A
C1062      H1067   1.085       .  S
C1063      C1064   1.409       .  A
C1064      C1065   1.409       .  A
C1065      C1066   1.407       .  A
C1065      H1068   1.085       .  S
C1066      C1069   1.444       .  S
C1069      N1071   1.157       .  T
C1070      N1072   1.157       .  T
C1073      C1074   1.407       .  A
C1073      C1078   1.411       .  A
C1074      C1075   1.405       .  A
C1074      H1079   1.085       .  S
C1075      C1076   1.413       .  A
C1075      C1082   1.443       .  S
C1076      C1077   1.404       .  A
C1077      C1078   1.395       .  A
C1077      H1080   1.085       .  S
C1078      C1081   1.445       .  S
C1081      N1083   1.157       .  T
C1082      N1084   1.157       .  T
C1085      C1086   1.402       .  A
C1085      C1090   1.414       .  A
C1086      C1087   1.406       .  A
C1086      H1091   1.084       .  S
C1087      C1088   1.418       .  A
C1087      C1094   1.444       .  S
C1088      C1089   1.401       .  A
C1089      C1090   1.400       .  A
C1089      H1092   1.077       .  S
C1090      C1093   1.446       .  S
C1093      N1095   1.157       .  T
C1094      N1096   1.157       .  T
C1097      C1767   1.484       .  S
C1097      C1098   1.405       .  A
C1097      C1102   1.414       .  A
C1098      C1099   1.398       .  A
C1098      H1103   1.085       .  S
C1099      C1100   1.415       .  A
C1099      C1106   1.445       .  S
C1100      C1101   1.405       .  A
C1101      C1102   1.400       .  A
C1101      H1104   1.085       .  S
C1102      C1105   1.444       .  S
C1105      N1107   1.157       .  T
C1106      N1108   1.158       .  T
C1109      C1110   1.401       .  A
C1109      C1114   1.413       .  A
C1110      C1111   1.408       .  A
C1110      H1115   1.085       .  S
C1111      C1112   1.423       .  A
C1111      C1118   1.444       .  S
C1112      C1113   1.404       .  A
C1113      C1114   1.400       .  A
C1113      H1116   1.082       .  S
C1114      C1117   1.446       .  S
C1117      N1119   1.157       .  T
C1118      N1120   1.158       .  T
C1121      C1754   1.481       .  S
C1121      C1122   1.404       .  A
C1121      C1126   1.416       .  A
C1122      C1123   1.399       .  A
C1122      H1127   1.085       .  S
C1123      C1124   1.414       .  A
C1123      C1130   1.444       .  S
C1124      C1125   1.403       .  A
C1125      C1126   1.398       .  A
C1125      H1128   1.085       .  S
C1126      C1129   1.445       .  S
C1129      N2299   1.158       .  T
C1130      N1132   1.157       .  T
N1131      C2297   1.158   1_455  T
C1133      C1134   1.406       .  A
C1134      C1135   1.406       .  A
C1134      H1139   1.085       .  S
C1135      C1142   1.442       .  S
C1136      C1137   1.406       .  A
C1137      C1138   1.396       .  A
C1137      H1140   1.085       .  S
C1138      C1141   1.445       .  S
C1141      N1143   1.157       .  T
C1142      N1144   1.157       .  T
C1145      C1146   1.402       .  A
C1145      C1150   1.414       .  A
C1146      C1147   1.404       .  A
C1146      H1151   1.085       .  S
C1147      C1148   1.415       .  A
C1147      C1154   1.444       .  S
C1148      C1149   1.401       .  A
C1149      C1150   1.396       .  A
C1149      H1152   1.085       .  S
C1150      C1153   1.446       .  S
C1153      N1155   1.157       .  T
C1154      N1156   1.157       .  T
C1157      C1158   1.403       .  A
C1157      C1162   1.415       .  A
C1158      C1159   1.395       .  A
C1158      H1163   1.085       .  S
C1159      C1160   1.413       .  A
C1159      C1166   1.445       .  S
C1160      C1161   1.406       .  A
C1161      C1162   1.411       .  A
C1161      H1164   1.083       .  S
C1162      C1165   1.443       .  S
C1165      N1167   1.157       .  T
C1166      N1168   1.157       .  T
In1169     O1171   2.203       .  S
In1169     O1172   2.267       .  S
In1169     O1180   2.271       .  S
In1169     O1174   2.220       .  S
In1169     O1176   2.221       .  S
In1169     O1177   2.273       .  S
In1169     O1178   2.247       .  S
In1169     O1181   2.237       .  S
C1170      O1176   1.257       .  A
C1170      O1178   1.263       .  A
O1171      C1179   1.259       .  A
O1172      C1179   1.267       .  A
C1173      O1180   1.264       .  A
C1173      O1174   1.258       .  A
C1173      C1717   1.483       .  S
C1175      O1177   1.258       .  A
C1175      O1181   1.260       .  A
C1175      C1741   1.482       .  S
C1179      C1729   1.477       .  S
In1182     O1184   2.219       .  S
In1182     O1185   2.265       .  S
In1182     O1193   2.282       .  S
In1182     O1187   2.223       .  S
In1182     O1189   2.237       .  S
In1182     O1190   2.241       .  S
In1182     O1191   2.247       .  S
In1182     O1194   2.289       .  S
C1183      O1189   1.260       .  A
C1183      O1191   1.262       .  A
O1184      C1192   1.257       .  A
O1185      C1192   1.262       .  A
C1186      O1193   1.267       .  A
C1186      O1187   1.259       .  A
C1186      C1720   1.491       .  S
C1188      O1190   1.257       .  A
C1188      O1194   1.264       .  A
C1188      C1693   1.491       .  S
C1192      C1732   1.476       .  S
In1195     O1197   2.203       .  S
In1195     O1198   2.283       .  S
In1195     O1206   2.255       .  S
In1195     O1200   2.207       .  S
In1195     O1202   2.226       .  S
In1195     O1203   2.238       .  S
In1195     O1204   2.259       .  S
In1195     O1207   2.268       .  S
C1196      O1202   1.258       .  A
C1196      O1204   1.263       .  A
C1196      C1684   1.484       .  S
O1197      C1205   1.257       .  A
O1198      C1205   1.266       .  A
C1199      O1206   1.265       .  A
C1199      O1200   1.260       .  A
C1199      C1657   1.478       .  S
C1201      O1203   1.257       .  A
C1201      O1207   1.260       .  A
C1201      C1669   1.482       .  S
C1205      C1645   1.482       .  S
In1208     O1210   2.219       .  S
In1208     O1211   2.262       .  S
In1208     O1219   2.253       .  S
In1208     O1213   2.217       .  S
In1208     O1215   2.227       .  S
In1208     O1216   2.272       .  S
In1208     O1217   2.234       .  S
In1208     O1220   2.237       .  S
C1209      O1215   1.259       .  A
C1209      O1217   1.261       .  A
C1209      C1708   1.477       .  S
O1210      C1218   1.259       .  A
O1211      C1218   1.262       .  A
C1212      O1219   1.266       .  A
C1212      O1213   1.262       .  A
C1212      C1660   1.481       .  S
C1214      O1216   1.260       .  A
C1214      O1220   1.257       .  A
C1214      C1633   1.490       .  S
C1218      C1648   1.476       .  S
C1221      C1222   1.536       .  S
C1221      C1227   1.549       .  S
C1221      C1225   1.538       .  S
C1221      C1612   1.551       .  S
C1222      H1229   1.085       .  S
C1222      C1223   1.368       .  D
C1223      C1224   1.546       .  S
C1223      C1696   1.505       .  S
C1224      C1228   1.552       .  S
C1224      C1226   1.550       .  S
C1224      H1230   1.105       .  S
C1225      H1231   1.085       .  S
C1225      C1226   1.361       .  D
C1227      H1232   1.083       .  S
C1227      C1228   1.377       .  D
C1228      C1621   1.515       .  S
C1233      C1234   1.533       .  S
C1233      C1239   1.548       .  S
C1233      C1237   1.544       .  S
C1233      C1624   1.552       .  S
C1234      H1241   1.086       .  S
C1234      C1235   1.363       .  D
C1235      C1236   1.543       .  S
C1235      C1573   1.498       .  S
C1236      C1240   1.554       .  S
C1236      C1238   1.546       .  S
C1236      H1242   1.106       .  S
C1237      H1243   1.084       .  S
C1237      C1238   1.367       .  D
C1238      C1585   1.492       .  S
C1239      H1244   1.084       .  S
C1239      C1240   1.378       .  D
C1240      C1609   1.518       .  S
C1245      C1246   1.534       .  S
C1245      C1251   1.549       .  S
C1245      C1249   1.531       .  S
C1245      C1561   1.549       .  S
C1246      H1253   1.085       .  S
C1246      C1247   1.369       .  D
C1247      C1248   1.554       .  S
C1247      C1672   1.497       .  S
C1248      C1252   1.540       .  S
C1248      C1250   1.554       .  S
C1248      H1254   1.110       .  S
C1249      H1255   1.085       .  S
C1249      C1250   1.365       .  D
C1250      C1597   1.510       .  S
C1251      H1256   1.082       .  S
C1251      C1252   1.371       .  D
C1252      C1549   1.500       .  S
C1257      C1258   1.541       .  S
C1257      C1263   1.542       .  S
C1257      C1261   1.544       .  S
C1257      C1552   1.559       .  S
C1258      H1265   1.078       .  S
C1258      C1259   1.356       .  D
C1259      C1260   1.540       .  S
C1259      C1537   1.481       .  S
C1260      C1264   1.552       .  S
C1260      C1262   1.543       .  S
C1260      H1266   1.096       .  S
C1261      H1267   1.086       .  S
C1261      C1262   1.371       .  D
C1262      C1588   1.509       .  S
C1263      H1268   1.083       .  S
C1263      C1264   1.383       .  D
C1264      C1564   1.523       .  S
In1269     O1271   2.204       .  S
In1269     O1272   2.279       .  S
In1269     O1280   2.260       .  S
In1269     O1274   2.219       .  S
In1269     O1276   2.242       .  S
In1269     O1277   2.236       .  S
In1269     O1278   2.244       .  S
In1269     O1281   2.278       .  S
C1270      O1276   1.259       .  A
C1270      O1278   1.261       .  A
C1270      C1489   1.483       .  S
O1271      C1279   1.259       .  A
O1272      C1279   1.267       .  A
C1273      O1280   1.263       .  A
C1273      O1274   1.261       .  A
C1273      C1501   1.480       .  S
C1275      O1277   1.256       .  A
C1275      O1281   1.261       .  A
C1275      C1525   1.481       .  S
C1279      C1516   1.483       .  S
In1282     O1284   2.222       .  S
In1282     O1285   2.263       .  S
In1282     O1293   2.283       .  S
In1282     O1287   2.203       .  S
In1282     O1289   2.220       .  S
In1282     O1290   2.240       .  S
In1282     O1291   2.253       .  S
In1282     O1294   2.278       .  S
C1283      O1289   1.259       .  A
C1283      O1291   1.263       .  A
C1283      C1480   1.472       .  S
O1284      C1292   1.258       .  A
O1285      C1292   1.261       .  A
C1286      O1293   1.268       .  A
C1286      O1287   1.258       .  A
C1286      C1504   1.484       .  S
C1288      O1290   1.257       .  A
C1288      O1294   1.265       .  A
C1288      C1576   1.488       .  S
C1292      C1513   1.475       .  S
In1295     O1297   2.220       .  S
In1295     O1298   2.251       .  S
In1295     O1306   2.260       .  S
In1295     O1300   2.207       .  S
In1295     O1302   2.226       .  S
In1295     O1303   2.230       .  S
In1295     O1304   2.245       .  S
In1295     O1307   2.262       .  S
C1296      O1302   1.260       .  A
C1296      O1304   1.262       .  A
C1296      C1492   1.482       .  S
O1297      C1305   1.259       .  A
O1298      C1305   1.260       .  A
C1299      O1306   1.267       .  A
C1299      O1300   1.259       .  A
C1299      C1444   1.485       .  S
C1301      O1303   1.257       .  A
C1301      O1307   1.262       .  A
C1301      C1465   1.479       .  S
C1305      C1453   1.472       .  S
In1308     O1310   2.183       .  S
In1308     O1311   2.265       .  S
In1308     O1319   2.245       .  S
In1308     O1313   2.212       .  S
In1308     O1315   2.228       .  S
In1308     O1316   2.273       .  S
In1308     O1317   2.244       .  S
In1308     O1320   2.207       .  S
C1309      O1315   1.260       .  A
C1309      O1317   1.260       .  A
C1309      C1477   1.471       .  S
O1310      C1318   1.258       .  A
O1311      C1318   1.269       .  A
C1312      O1319   1.264       .  A
C1312      O1313   1.262       .  A
C1312      C1441   1.472       .  S
C1314      O1316   1.265       .  A
C1314      O1320   1.258       .  A
C1314      C1540   1.484       .  S
C1318      C1456   1.474   1_545  S
C1321      C1322   1.521       .  S
C1321      C1327   1.543       .  S
C1321      C1325   1.542       .  S
C1321      C1417   1.545       .  S
C1322      H1329   1.087       .  S
C1322      C1323   1.361       .  D
C1323      C1324   1.548       .  S
C1323      C1744   1.493       .  S
C1324      C1328   1.552       .  S
C1324      C1326   1.547       .  S
C1324      H1330   1.110       .  S
C1325      H1331   1.084       .  S
C1325      C1326   1.368       .  D
C1327      H1332   1.085       .  S
C1327      C1328   1.375       .  D
C1328      C1429   1.501       .  S
C1333      C1334   1.545       .  S
C1333      C1339   1.545       .  S
C1333      C1337   1.537       .  S
C1333      C1432   1.558       .  S
C1334      H1341   1.080       .  S
C1334      C1335   1.362       .  D
C1335      C1336   1.537       .  S
C1335      C1528   1.488       .  S
C1336      C1340   1.542       .  S
C1336      C1338   1.552       .  S
C1336      H1342   1.106       .  S
C1337      H1343   1.084       .  S
C1337      C1338   1.371       .  D
C1338      C1396   1.510       .  S
C1339      H1344   1.085       .  S
C1339      C1340   1.377       .  D
C1340      C1420   1.507       .  S
C1345      C1346   1.542       .  S
C1345      C1351   1.545       .  S
C1345      C1349   1.550       .  S
C1345      C1381   1.556       .  S
C1346      H1353   1.086       .  S
C1346      C1347   1.371       .  D
C1347      C1348   1.538       .  S
C1347      C1636   1.489       .  S
C1348      C1352   1.542       .  S
C1348      C1350   1.536       .  S
C1348      H1354   1.111       .  S
C1349      H1355   1.081       .  S
C1349      C1350   1.360       .  D
C1350      C1405   1.488       .  S
C1351      H1356   1.086       .  S
C1351      C1352   1.372       .  D
C1352      C1369   1.495       .  S
C1357      C1358   1.541       .  S
C1357      C1363   1.549       .  S
C1357      C1361   1.552       .  S
C1357      C1372   1.558       .  S
C1358      H1365   1.085       .  S
C1358      C1359   1.371       .  D
C1359      C1360   1.545       .  S
C1359      C1468   1.497       .  S
C1360      C1364   1.535       .  S
C1360      C1362   1.535       .  S
C1360      H1366   1.110       .  S
C1361      H1367   1.081       .  S
C1361      C1362   1.362       .  D
C1362      C1393   1.486       .  S
C1363      H1368   1.086       .  S
C1363      C1364   1.370       .  D
C1364      C1384   1.492       .  S
C1369      C1370   1.400       .  A
C1369      C1374   1.410       .  A
C1370      C1955   1.406       .  A
C1370      H1375   1.085       .  S
C1371      C1954   1.409       .  A
C1371      C1372   1.425       .  A
C1371      C1378   1.442       .  S
C1372      C1957   1.417       .  A
C1373      C1956   1.414       .  A
C1373      C1374   1.405       .  A
C1373      H1376   1.076       .  S
C1374      C1377   1.442       .  S
C1377      N1379   1.156       .  T
C1378      N1380   1.157       .  T
C1381      C1382   1.416       .  A
C1381      C1386   1.425       .  A
C1382      C1383   1.402       .  A
C1382      H1387   1.077       .  S
C1383      C1384   1.405       .  A
C1383      C1390   1.442       .  S
C1384      C1385   1.401       .  A
C1385      C1386   1.409       .  A
C1385      H1388   1.083       .  S
C1386      C1389   1.442       .  S
C1389      N1391   1.157       .  T
C1390      N1392   1.156       .  T
C1393      C1394   1.396       .  A
C1393      C1398   1.409       .  A
C1394      C1395   1.402       .  A
C1394      H1399   1.084       .  S
C1395      C1396   1.424       .  A
C1395      C1402   1.442       .  S
C1396      C1397   1.410       .  A
C1397      C1398   1.406       .  A
C1397      H1400   1.080       .  S
C1398      C1401   1.444       .  S
C1401      N1403   1.157       .  T
C1402      N1404   1.157       .  T
C1405      C1406   1.404       .  A
C1405      C1410   1.409       .  A
C1406      C1407   1.410       .  A
C1406      H1411   1.085       .  S
C1407      C1408   1.416       .  A
C1407      C1414   1.443       .  S
C1408      C1409   1.406       .  A
C1409      C1410   1.401       .  A
C1409      H1412   1.085       .  S
C1410      C1413   1.444       .  S
C1413      N1415   1.157       .  T
C1417      C1418   1.411       .  A
C1417      C2006   1.425       .  A
C1418      C2003   1.407   1_554  A
C1418      H1423   1.083       .  S
C1419      C2002   1.407       .  A
C1419      C1420   1.417       .  A
C1419      C1426   1.443       .  S
C1420      C1421   1.404       .  A
C1421      C1422   1.401       .  A
C1421      H1424   1.084       .  S
C1422      C2001   1.426       .  A
C1422      C1425   1.444       .  S
C1425      N1427   1.158       .  T
C1426      N1428   1.157       .  T
C1429      C1430   1.401       .  A
C1429      C1434   1.412       .  A
C1430      C1431   1.410       .  A
C1430      H1435   1.084       .  S
C1431      C1432   1.425       .  A
C1431      C1438   1.443       .  S
C1432      C1433   1.416       .  A
C1433      C1434   1.405       .  A
C1433      H1436   1.075       .  S
C1434      C1437   1.446       .  S
C1437      N1439   1.157       .  T
C1438      N1440   1.157       .  T
C1441      C2026   1.400   1_554  A
C1441      C1446   1.412   1_545  A
C1442      C2025   1.399       .  A
C1442      C1443   1.396       .  A
C1442      H1447   1.085       .  S
C1443      C1444   1.418   1_545  A
C1443      C1450   1.445       .  S
C1444      C2029   1.406       .  A
C1445      C2028   1.404       .  A
C1445      C1446   1.400   1_556  A
C1445      H1448   1.085       .  S
C1446      C1449   1.444       .  S
C1449      N1451   1.157       .  T
C1450      N1452   1.157       .  T
C1453      C1454   1.407       .  A
C1453      C1458   1.408       .  A
C1454      C1455   1.402       .  A
C1454      H1459   1.085       .  S
C1455      C1456   1.409       .  A
C1455      C1462   1.443   1_565  S
C1456      C1457   1.405       .  A
C1457      C1458   1.393       .  A
C1457      H1460   1.085       .  S
C1458      C1461   1.445       .  S
C1461      N1463   1.157       .  T
C1462      N1464   1.157       .  T
C1465      C1466   1.400       .  A
C1465      C1470   1.413       .  A
C1466      C1467   1.404       .  A
C1466      H1471   1.085       .  S
C1467      C1468   1.419       .  A
C1467      C1474   1.442       .  S
C1468      C1469   1.405       .  A
C1469      C1470   1.399       .  A
C1469      H1472   1.084       .  S
C1470      C1473   1.446       .  S
C1473      N1475   1.158       .  T
C1474      N1476   1.157       .  T
C1477      C1478   1.402       .  A
C1477      C1482   1.411       .  A
C1478      C1479   1.397       .  A
C1478      H1483   1.085       .  S
C1479      C1480   1.411       .  A
C1479      C1486   1.445       .  S
C1480      C1481   1.403       .  A
C1481      C1482   1.400       .  A
C1481      H1484   1.085       .  S
C1482      C1485   1.444       .  S
C1485      N1487   1.157       .  T
C1486      N1488   1.157   1_545  T
C1489      C1490   1.404       .  A
C1489      C1494   1.415       .  A
C1490      C1491   1.398       .  A
C1490      H1495   1.085       .  S
C1491      C1492   1.414       .  A
C1491      C1498   1.445       .  S
C1492      C1493   1.405       .  A
C1493      C1494   1.400       .  A
C1493      H1496   1.085       .  S
C1494      C1497   1.445       .  S
C1497      N1499   1.158       .  T
C1498      N1500   1.157       .  T
C1501      C1502   1.400       .  A
C1501      C1506   1.416   1_565  A
C1502      C1503   1.396       .  A
C1502      H1507   1.085       .  S
C1503      C1504   1.415   1_565  A
C1503      C1510   1.446       .  S
C1504      C1505   1.404       .  A
C1505      C1506   1.407       .  A
C1505      H1508   1.084       .  S
C1506      C1509   1.444       .  S
C1509      N1511   1.157       .  T
C1510      N1512   1.157       .  T
C1513      C1514   1.406       .  A
C1513      C1518   1.407   1_554  A
C1514      C2099   1.405   1_545  A
C1514      H1519   1.085       .  S
C1515      C2098   1.407   1_565  A
C1515      C1516   1.413       .  A
C1515      C1522   1.443       .  S
C1516      C1517   1.406   1_565  A
C1517      C2102   1.396       .  A
C1517      H1520   1.085       .  S
C1518      C2101   1.397       .  A
C1518      C1521   1.444       .  S
C1521      N1523   1.157       .  T
C1522      N1524   1.157       .  T
C1525      C1526   1.403       .  A
C1525      C1530   1.416       .  A
C1526      C1527   1.406       .  A
C1526      H1531   1.084       .  S
C1527      C1528   1.415       .  A
C1527      C1534   1.444       .  S
C1528      C1529   1.398       .  A
C1529      C1530   1.399       .  A
C1529      H1532   1.082       .  S
C1530      C1533   1.445       .  S
C1533      N1535   1.157       .  T
C1534      N1536   1.157       .  T
C1537      C1538   1.399       .  A
C1537      C1542   1.411       .  A
C1538      C1539   1.395       .  A
C1538      H1543   1.086       .  S
C1539      C1540   1.417       .  A
C1539      C1546   1.446       .  S
C1540      C1541   1.406       .  A
C1541      C1542   1.407       .  A
C1541      H1544   1.084       .  S
C1542      C1545   1.442       .  S
C1545      N1547   1.157       .  T
C1546      N1548   1.157       .  T
C1549      C1550   1.406       .  A
C1549      C1554   1.408       .  A
C1550      C2135   1.414       .  A
C1550      H1555   1.084       .  S
C1551      C2134   1.414   1_554  A
C1551      C1552   1.425       .  A
C1551      C1558   1.444       .  S
C1552      C1553   1.417   1_554  A
C1553      C2138   1.400       .  A
C1553      H1556   1.072       .  S
C1554      C2137   1.400       .  A
C1554      C1557   1.446       .  S
C1557      N1559   1.157       .  T
C1558      N1560   1.157       .  T
C1561      C1562   1.410       .  A
C1561      C1566   1.418       .  A
C1562      C1563   1.407       .  A
C1562      H1567   1.079       .  S
C1563      C1564   1.425       .  A
C1563      C1570   1.443       .  S
C1564      C1565   1.411       .  A
C1565      C1566   1.403       .  A
C1565      H1568   1.081       .  S
C1566      C1569   1.445       .  S
C1569      N1571   1.157       .  T
C1570      N1572   1.158       .  T
C1573      C1574   1.403       .  A
C1573      C1578   1.418       .  A
C1574      C1575   1.405       .  A
C1574      H1579   1.084       .  S
C1575      C1576   1.417       .  A
C1575      C1582   1.445       .  S
C1576      C1577   1.401       .  A
C1577      C1578   1.405       .  A
C1577      H1580   1.085       .  S
C1578      C1581   1.443       .  S
C1581      N1583   1.157       .  T
C1582      N1584   1.158       .  T
C1585      C1586   1.399       .  A
C1585      C1590   1.410       .  A
C1586      C1587   1.406       .  A
C1586      H1591   1.084       .  S
C1587      C1588   1.422       .  A
C1587      C1594   1.442       .  S
C1588      C1589   1.410       .  A
C1589      C1590   1.407       .  A
C1589      H1592   1.084       .  S
C1590      C1593   1.443       .  S
C1593      N1595   1.157       .  T
C1594      N1596   1.157       .  T
C1597      C1598   1.407       .  A
C1597      C1602   1.423       .  A
C1598      C1599   1.410       .  A
C1598      H1603   1.079       .  S
C1599      C1600   1.411   1_655  A
C1599      C1606   1.443       .  S
C1600      C1601   1.400   1_455  A
C1601      C1602   1.405       .  A
C1601      H1604   1.085   1_655  S
C1602      C1605   1.444       .  S
C1605      N1607   1.157       .  T
C1609      C1610   1.410       .  A
C1609      C1614   1.419       .  A
C1610      C1611   1.406       .  A
C1610      H1615   1.083       .  S
C1611      C2196   1.422   1_554  A
C1611      C2202   1.445       .  S
C1612      C2195   1.423       .  A
C1612      C2197   1.412       .  A
C1613      C2196   1.412       .  A
C1613      C1614   1.409   1_556  A
C1613      H2200   1.081       .  S
C1614      C1617   1.442       .  S
H1616      C2197   1.082       .  S
C1617      N1619   1.157       .  T
C1618      C2195   1.444       .  S
C1618      N1620   1.157       .  T
C1621      C1622   1.409       .  A
C1621      C1626   1.417       .  A
C1622      C1623   1.407       .  A
C1622      H1627   1.084       .  S
C1623      C1624   1.423       .  A
C1623      C1630   1.443       .  S
C1624      C1625   1.413       .  A
C1625      C1626   1.408       .  A
C1625      H1628   1.082       .  S
C1626      C1629   1.442       .  S
C1629      N1631   1.157       .  T
C1630      N1632   1.158       .  T
C1633      C1634   1.407       .  A
C1633      C1638   1.415       .  A
C1634      C1635   1.399       .  A
C1634      H1639   1.085       .  S
C1635      C1636   1.410       .  A
C1635      C1642   1.445       .  S
C1636      C1637   1.405       .  A
C1637      C1638   1.407       .  A
C1637      H1640   1.085       .  S
C1638      C1641   1.443       .  S
C1641      N1643   1.157       .  T
C1642      N1644   1.157       .  T
C1645      C1646   1.405       .  A
C1645      C2234   1.412       .  A
C1646      C2231   1.395       .  A
C1646      H1651   1.085       .  S
C1647      C2230   1.395       .  A
C1647      C1648   1.408   1_556  A
C1647      C2238   1.444       .  S
C1648      C1649   1.407       .  A
C1649      C1650   1.406   1_554  A
C1649      H1652   1.085       .  S
C1650      C2229   1.412       .  A
C1650      C1653   1.444   1_556  S
C1653      N1655   1.157       .  T
C1654      C2231   1.445       .  S
C1654      N1656   1.157       .  T
C1657      C1658   1.405       .  A
C1657      C1662   1.411       .  A
C1658      C1659   1.403       .  A
C1658      H1663   1.085       .  S
C1659      C1660   1.413       .  A
C1659      C1666   1.443       .  S
C1660      C1661   1.405       .  A
C1661      C1662   1.396       .  A
C1661      H1664   1.085       .  S
C1662      C1665   1.445       .  S
C1665      N1667   1.157       .  T
C1666      N1668   1.157       .  T
C1669      C1670   1.402       .  A
C1669      C1674   1.414       .  A
C1670      C1671   1.406       .  A
C1670      H1675   1.085       .  S
C1671      C1672   1.420       .  A
C1671      C1678   1.444       .  S
C1672      C1673   1.400       .  A
C1673      C1674   1.399       .  A
C1673      H1676   1.079       .  S
C1674      C1677   1.445       .  S
C1677      N1679   1.157       .  T
C1678      N1680   1.157       .  T
C1681      C1682   1.405       .  A
C1681      C1686   1.414       .  A
C1682      C1683   1.399       .  A
C1682      H1687   1.085       .  S
C1683      C1684   1.415       .  A
C1683      C1690   1.446       .  S
C1684      C1685   1.404       .  A
C1685      C1686   1.402       .  A
C1685      H1688   1.085       .  S
C1686      C1689   1.443       .  S
C1689      N1691   1.157   1_655  T
C1690      N1692   1.158       .  T
C1693      C1694   1.403       .  A
C1693      C1698   1.416       .  A
C1694      C1695   1.409       .  A
C1694      H1699   1.085       .  S
C1695      C1696   1.421       .  A
C1695      C1702   1.444       .  S
C1696      C1697   1.403       .  A
C1697      C1698   1.402       .  A
C1697      H1700   1.083       .  S
C1698      C1701   1.445       .  S
C1701      N1703   1.157       .  T
C1702      N1704   1.158       .  T
C1705      C1706   1.404       .  A
C1705      C1710   1.416       .  A
C1706      C1707   1.398       .  A
C1706      H1711   1.085       .  S
C1707      C1708   1.413       .  A
C1707      C1714   1.445       .  S
C1708      C1709   1.403       .  A
C1709      C1710   1.396       .  A
C1709      H1712   1.085       .  S
C1710      C1713   1.445       .  S
C1714      N1716   1.157       .  T
C1717      C1718   1.407       .  A
C1717      C2306   1.411   1_554  A
C1718      C1719   1.407   1_554  A
C1718      H1723   1.085       .  S
C1719      C2304   1.414       .  A
C1719      C1726   1.443       .  S
C1720      C2303   1.414       .  A
C1720      C1721   1.407       .  A
C1721      C1722   1.399       .  A
C1721      H1724   1.085       .  S
C1722      C2301   1.411       .  A
C1722      C1725   1.445       .  S
C1725      N1727   1.157       .  T
C1726      N1728   1.157   1_556  T
C1729      C1730   1.402       .  A
C1729      C1734   1.414       .  A
C1730      C1731   1.404       .  A
C1730      H1735   1.085       .  S
C1731      C1732   1.415       .  A
C1731      C1738   1.444       .  S
C1732      C1733   1.401       .  A
C1733      C1734   1.397       .  A
C1733      H1736   1.085       .  S
C1734      C1737   1.446       .  S
C1737      N1739   1.158       .  T
C1738      N1740   1.157       .  T
C1741      C1742   1.399       .  A
C1741      C1746   1.414       .  A
C1742      C1743   1.392       .  A
C1742      H1747   1.086       .  S
C1743      C1744   1.415       .  A
C1743      C1750   1.445       .  S
C1744      C1745   1.407       .  A
C1745      C1746   1.412       .  A
C1745      H1748   1.083       .  S
C1746      C1749   1.442       .  S
C1749      N1751   1.157       .  T
C1750      N1752   1.157       .  T
In1753     O1755   2.204       .  S
In1753     O1756   2.274       .  S
In1753     O1764   2.266       .  S
In1753     O1758   2.217       .  S
In1753     O1760   2.223       .  S
In1753     O1761   2.280       .  S
In1753     O1762   2.252       .  S
In1753     O1765   2.232       .  S
C1754      O1760   1.256       .  A
C1754      O1762   1.262       .  A
O1755      C1763   1.258       .  A
O1756      C1763   1.267       .  A
C1757      O1764   1.265       .  A
C1757      O1758   1.259       .  A
C1757      C2301   1.482       .  S
C1759      O1761   1.261       .  A
C1759      O1765   1.259       .  A
C1759      C2325   1.487       .  S
C1763      C2313   1.478       .  S
In1766     O1768   2.216       .  S
In1766     O1769   2.263       .  S
In1766     O1777   2.271       .  S
In1766     O1771   2.211       .  S
In1766     O1773   2.232       .  S
In1766     O1774   2.239       .  S
In1766     O1775   2.248       .  S
In1766     O1778   2.281       .  S
C1767      O1773   1.259       .  A
C1767      O1775   1.261       .  A
O1768      C1776   1.257       .  A
O1769      C1776   1.262       .  A
C1770      O1777   1.268       .  A
C1770      O1771   1.260       .  A
C1770      C2304   1.488       .  S
C1772      O1774   1.256       .  A
C1772      O1778   1.261       .  A
C1772      C2277   1.483       .  S
C1776      C2316   1.475       .  S
In1779     O1781   2.203       .  S
In1779     O1782   2.277       .  S
In1779     O1790   2.260       .  S
In1779     O1784   2.214       .  S
In1779     O1786   2.233       .  S
In1779     O1787   2.240       .  S
In1779     O1788   2.250       .  S
In1779     O1791   2.271       .  S
C1780      O1786   1.259       .  A
C1780      O1788   1.262       .  A
C1780      C2268   1.484       .  S
O1781      C1789   1.258       .  A
O1782      C1789   1.267       .  A
C1783      O1790   1.264       .  A
C1783      O1784   1.260       .  A
C1783      C2241   1.480       .  S
C1785      O1787   1.256       .  A
C1785      O1791   1.260       .  A
C1785      C2253   1.482       .  S
C1789      C2229   1.480       .  S
In1792     O1794   2.215       .  S
In1792     O1795   2.259       .  S
In1792     O1803   2.263       .  S
In1792     O1797   2.211       .  S
In1792     O1799   2.238       .  S
In1792     O1800   2.281       .  S
In1792     O1801   2.241       .  S
In1792     O1804   2.234       .  S
C1793      O1799   1.259       .  A
C1793      O1801   1.260       .  A
C1793      C2292   1.480       .  S
O1794      C1802   1.261       .  A
O1795      C1802   1.263       .  A
C1796      O1803   1.266       .  A
C1796      O1797   1.260       .  A
C1796      C2244   1.482       .  S
C1798      O1800   1.261       .  A
C1798      O1804   1.257       .  A
C1798      C2217   1.490       .  S
C1802      C2232   1.479       .  S
C1805      C1806   1.532       .  S
C1805      C1811   1.551       .  S
C1805      C1809   1.540       .  S
C1805      C2196   1.552       .  S
C1806      H1813   1.085       .  S
C1806      C1807   1.366       .  D
C1807      C1808   1.548       .  S
C1807      C2280   1.504       .  S
C1808      C1812   1.549       .  S
C1808      C1810   1.549       .  S
C1808      H1814   1.104       .  S
C1809      H1815   1.085       .  S
C1809      C1810   1.365       .  D
C1811      H1816   1.083       .  S
C1811      C1812   1.378       .  D
C1812      C2205   1.518       .  S
C1817      C1818   1.530       .  S
C1817      C1823   1.550       .  S
C1817      C1821   1.541       .  S
C1817      C2208   1.550       .  S
C1818      H1825   1.087       .  S
C1818      C1819   1.361       .  D
C1819      C1820   1.545       .  S
C1819      C2157   1.495       .  S
C1820      C1824   1.550       .  S
C1820      C1822   1.545       .  S
C1820      H1826   1.108       .  S
C1821      H1827   1.085       .  S
C1821      C1822   1.365       .  D
C1822      C2169   1.489       .  S
C1823      H1828   1.084       .  S
C1823      C1824   1.380       .  D
C1824      C2193   1.513       .  S
C1829      C1830   1.536       .  S
C1829      C1835   1.550       .  S
C1829      C1833   1.536       .  S
C1829      C2145   1.553       .  S
C1830      H1837   1.085       .  S
C1830      C1831   1.369       .  D
C1831      C1832   1.550       .  S
C1831      C2256   1.497       .  S
C1832      C1836   1.539       .  S
C1832      C1834   1.552       .  S
C1832      H1838   1.110       .  S
C1833      H1839   1.086       .  S
C1833      C1834   1.367       .  D
C1834      C2181   1.507       .  S
C1835      H1840   1.081       .  S
C1835      C1836   1.371       .  D
C1836      C2133   1.498       .  S
C1841      C1842   1.539       .  S
C1841      C1847   1.543       .  S
C1841      C1845   1.542       .  S
C1841      C2136   1.559       .  S
C1842      H1849   1.078       .  S
C1842      C1843   1.355       .  D
C1843      C1844   1.541       .  S
C1843      C2121   1.481       .  S
C1844      C1848   1.557       .  S
C1844      C1846   1.541       .  S
C1844      H1850   1.096       .  S
C1845      H1851   1.086       .  S
C1845      C1846   1.368       .  D
C1846      C2172   1.502       .  S
C1847      H1852   1.083       .  S
C1847      C1848   1.386       .  D
C1848      C2148   1.530       .  S
In1853     O1855   2.214       .  S
In1853     O1856   2.271       .  S
In1853     O1864   2.249       .  S
In1853     O1858   2.222       .  S
In1853     O1860   2.233       .  S
In1853     O1861   2.244       .  S
In1853     O1862   2.245       .  S
In1853     O1865   2.270       .  S
C1854      O1860   1.260       .  A
C1854      O1862   1.262       .  A
C1854      C2073   1.479       .  S
O1855      C1863   1.258       .  A
O1856      C1863   1.266       .  A
C1857      O1864   1.263       .  A
C1857      O1858   1.262       .  A
C1857      C2085   1.477       .  S
C1859      O1861   1.256       .  A
C1859      O1865   1.260       .  A
C1859      C2109   1.483       .  S
C1863      C2100   1.484       .  S
In1866     O1868   2.227       .  S
In1866     O1869   2.267       .  S
In1866     O1877   2.284       .  S
In1866     O1871   2.203       .  S
In1866     O1873   2.214       .  S
In1866     O1874   2.230       .  S
In1866     O1875   2.265       .  S
In1866     O1878   2.281       .  S
C1867      O1873   1.260       .  A
C1867      O1875   1.262       .  A
C1867      C2064   1.475       .  S
O1868      C1876   1.259       .  A
O1869      C1876   1.262       .  A
C1870      O1877   1.269       .  A
C1870      O1871   1.257       .  A
C1870      C2088   1.483       .  S
C1872      O1874   1.258       .  A
C1872      O1878   1.266       .  A
C1872      C2160   1.486       .  S
C1876      C2097   1.478       .  S
In1879     O1881   2.210       .  S
In1879     O1882   2.266       .  S
In1879     O1890   2.249       .  S
In1879     O1884   2.217       .  S
In1879     O1886   2.236       .  S
In1879     O1887   2.229       .  S
In1879     O1888   2.230       .  S
In1879     O1891   2.266       .  S
C1880      O1886   1.260       .  A
C1880      O1888   1.261       .  A
C1880      C2076   1.481       .  S
O1881      C1889   1.258       .  A
O1882      C1889   1.262       .  A
C1883      O1890   1.267       .  A
C1883      O1884   1.260       .  A
C1883      C2028   1.482       .  S
C1885      O1887   1.257       .  A
C1885      O1891   1.263       .  A
C1885      C2049   1.482       .  S
C1889      C2037   1.473       .  S
In1892     O1894   2.197       .  S
In1892     O1895   2.278       .  S
In1892     O1903   2.250       .  S
In1892     O1897   2.208       .  S
In1892     O1899   2.222       .  S
In1892     O1900   2.272       .  S
In1892     O1901   2.256       .  S
In1892     O1904   2.212       .  S
C1893      O1899   1.259       .  A
C1893      O1901   1.261       .  A
C1893      C2061   1.473       .  S
O1894      C1902   1.258       .  A
O1895      C1902   1.268       .  A
C1896      O1903   1.265       .  A
C1896      O1897   1.261       .  A
C1896      C2025   1.473       .  S
C1898      O1900   1.265       .  A
C1898      O1904   1.257       .  A
C1898      C2124   1.485       .  S
C1902      C2040   1.480   1_545  S
C1905      C1906   1.525       .  S
C1905      C1911   1.545       .  S
C1905      C1909   1.540       .  S
C1905      C2001   1.546       .  S
C1906      H1913   1.087       .  S
C1906      C1907   1.361       .  D
C1907      C1908   1.546       .  S
C1907      C2328   1.490       .  S
C1908      C1912   1.550       .  S
C1908      C1910   1.549       .  S
C1908      H1914   1.110       .  S
C1909      H1915   1.083       .  S
C1909      C1910   1.367       .  D
C1911      H1916   1.086       .  S
C1911      C1912   1.374       .  D
C1912      C2013   1.500       .  S
C1917      C1918   1.548       .  S
C1917      C1923   1.544       .  S
C1917      C1921   1.538       .  S
C1917      C2016   1.562       .  S
C1918      H1925   1.078       .  S
C1918      C1919   1.364       .  D
C1919      C1920   1.541       .  S
C1919      C2112   1.497       .  S
C1920      C1924   1.543       .  S
C1920      C1922   1.555       .  S
C1920      H1926   1.105       .  S
C1921      H1927   1.083       .  S
C1921      C1922   1.373       .  D
C1922      C1980   1.519       .  S
C1923      H1928   1.085       .  S
C1923      C1924   1.377       .  D
C1924      C2004   1.510       .  S
C1929      C1930   1.540       .  S
C1929      C1935   1.547       .  S
C1929      C1933   1.550       .  S
C1929      C1965   1.559       .  S
C1930      H1937   1.085       .  S
C1930      C1931   1.368       .  D
C1931      C1932   1.538       .  S
C1931      C2220   1.489       .  S
C1932      C1936   1.541       .  S
C1932      C1934   1.536       .  S
C1932      H1938   1.111       .  S
C1933      H1939   1.082       .  S
C1933      C1934   1.362       .  D
C1934      C1989   1.486       .  S
C1935      H1940   1.086       .  S
C1935      C1936   1.376       .  D
C1936      C1953   1.500       .  S
C1941      C1942   1.539       .  S
C1941      C1947   1.548       .  S
C1941      C1945   1.552       .  S
C1941      C1956   1.553   1_556  S
C1942      H1949   1.085       .  S
C1942      C1943   1.369       .  D
C1943      C1944   1.547       .  S
C1943      C2052   1.497       .  S
C1944      C1948   1.535       .  S
C1944      C1946   1.537       .  S
C1944      H1950   1.110       .  S
C1945      H1951   1.080       .  S
C1945      C1946   1.364       .  D
C1946      C1977   1.489       .  S
C1947      H1952   1.086       .  S
C1947      C1948   1.369       .  D
C1948      C1968   1.494       .  S
C1953      C1954   1.402       .  A
C1953      C1958   1.408       .  A
C1954      H1959   1.085       .  S
C1955      C1956   1.424       .  A
C1955      C1962   1.442   1_554  S
C1957      C1958   1.405       .  A
C1957      H1960   1.076       .  S
C1958      C1961   1.443       .  S
C1961      N1963   1.157       .  T
C1962      N1964   1.157       .  T
C1965      C1966   1.417       .  A
C1965      C1970   1.426       .  A
C1966      C1967   1.405       .  A
C1966      H1971   1.078       .  S
C1967      C1968   1.406       .  A
C1967      C1974   1.443       .  S
C1968      C1969   1.401       .  A
C1969      C1970   1.410       .  A
C1969      H1972   1.083       .  S
C1970      C1973   1.443       .  S
C1973      N1975   1.157       .  T
C1974      N1976   1.157       .  T
C1977      C1978   1.395       .  A
C1977      C1982   1.408       .  A
C1978      C1979   1.403       .  A
C1978      H1983   1.083       .  S
C1979      C1980   1.425       .  A
C1979      C1986   1.440       .  S
C1980      C1981   1.413       .  A
C1981      C1982   1.409       .  A
C1981      H1984   1.072       .  S
C1982      C1985   1.444       .  S
C1985      N1987   1.157       .  T
C1986      N1988   1.157       .  T
C1989      C1990   1.403       .  A
C1989      C1994   1.407       .  A
C1990      C1991   1.408       .  A
C1990      H1995   1.085       .  S
C1991      C1992   1.416       .  A
C1991      C1998   1.442       .  S
C1992      C1993   1.408       .  A
C1993      C1994   1.401       .  A
C1993      H1996   1.084       .  S
C1994      C1997   1.444       .  S
C1997      N1999   1.157       .  T
C2001      C2002   1.411       .  A
C2002      H2007   1.083       .  S
C2003      C2004   1.417       .  A
C2003      C2010   1.443       .  S
C2004      C2005   1.406       .  A
C2005      C2006   1.402   1_556  A
C2005      H2008   1.083       .  S
C2006      C2009   1.444   1_554  S
C2009      N2011   1.158       .  T
C2010      N2012   1.157       .  T
C2013      C2014   1.401       .  A
C2013      C2018   1.409       .  A
C2014      C2015   1.412       .  A
C2014      H2019   1.084       .  S
C2015      C2016   1.427       .  A
C2015      C2022   1.443       .  S
C2016      C2017   1.417       .  A
C2017      C2018   1.405       .  A
C2017      H2020   1.074       .  S
C2018      C2021   1.446       .  S
C2021      N2023   1.157       .  T
C2022      N2024   1.157       .  T
C2025      C2030   1.412   1_545  A
C2026      C2027   1.398       .  A
C2026      H2031   1.085       .  S
C2027      C2028   1.417   1_545  A
C2027      C2034   1.445       .  S
C2029      C2030   1.403       .  A
C2029      H2032   1.084       .  S
C2030      C2033   1.445       .  S
C2033      N2035   1.157       .  T
C2034      N2036   1.157       .  T
C2037      C2038   1.407       .  A
C2037      C2042   1.407       .  A
C2038      C2039   1.405       .  A
C2038      H2043   1.085       .  S
C2039      C2040   1.411       .  A
C2039      C2046   1.443   1_565  S
C2040      C2041   1.406       .  A
C2041      C2042   1.395       .  A
C2041      H2044   1.085       .  S
C2042      C2045   1.445       .  S
C2045      N2047   1.157       .  T
C2046      N2048   1.157       .  T
C2049      C2050   1.400       .  A
C2049      C2054   1.415       .  A
C2050      C2051   1.404       .  A
C2050      H2055   1.085       .  S
C2051      C2052   1.421       .  A
C2051      C2058   1.442       .  S
C2052      C2053   1.403       .  A
C2053      C2054   1.398       .  A
C2053      H2056   1.084       .  S
C2054      C2057   1.445       .  S
C2057      N2059   1.157       .  T
C2058      N2060   1.157       .  T
C2061      C2062   1.401       .  A
C2061      C2066   1.412       .  A
C2062      C2063   1.394       .  A
C2062      H2067   1.085       .  S
C2063      C2064   1.411       .  A
C2063      C2070   1.445       .  S
C2064      C2065   1.405       .  A
C2065      C2066   1.404       .  A
C2065      H2068   1.084       .  S
C2066      C2069   1.445       .  S
C2069      N2071   1.158       .  T
C2070      N2072   1.157   1_545  T
C2073      C2074   1.404       .  A
C2073      C2078   1.413       .  A
C2074      C2075   1.400       .  A
C2074      H2079   1.085       .  S
C2075      C2076   1.415       .  A
C2075      C2082   1.445       .  S
C2076      C2077   1.404       .  A
C2077      C2078   1.397       .  A
C2077      H2080   1.085       .  S
C2078      C2081   1.445       .  S
C2081      N2083   1.157       .  T
C2082      N2084   1.157       .  T
C2085      C2086   1.400       .  A
C2085      C2090   1.416       .  A
C2086      C2087   1.397       .  A
C2086      H2091   1.085       .  S
C2087      C2088   1.417   1_565  A
C2087      C2094   1.446       .  S
C2088      C2089   1.403       .  A
C2089      C2090   1.405   1_545  A
C2089      H2092   1.084       .  S
C2090      C2093   1.445   1_565  S
C2093      N2095   1.157       .  T
C2094      N2096   1.157       .  T
C2097      C2098   1.407       .  A
C2097      C2102   1.407       .  A
C2098      H2103   1.085       .  S
C2099      C2100   1.413   1_554  A
C2099      C2106   1.443       .  S
C2100      C2101   1.407   1_565  A
C2101      H2104   1.085       .  S
C2102      C2105   1.444       .  S
C2105      N2107   1.157       .  T
C2106      N2108   1.157       .  T
C2109      C2110   1.404       .  A
C2109      C2114   1.414       .  A
C2110      C2111   1.407       .  A
C2110      H2115   1.084       .  S
C2111      C2112   1.417       .  A
C2111      C2118   1.444       .  S
C2112      C2113   1.400       .  A
C2113      C2114   1.398       .  A
C2113      H2116   1.072       .  S
C2114      C2117   1.445       .  S
C2117      N2119   1.157       .  T
C2118      N2120   1.157       .  T
C2121      C2122   1.399       .  A
C2121      C2126   1.410       .  A
C2122      C2123   1.395       .  A
C2122      H2127   1.086       .  S
C2123      C2124   1.418       .  A
C2123      C2130   1.446       .  S
C2124      C2125   1.407       .  A
C2125      C2126   1.407       .  A
C2125      H2128   1.084       .  S
C2126      C2129   1.442       .  S
C2129      N2131   1.157       .  T
C2130      N2132   1.157       .  T
C2133      C2134   1.405       .  A
C2133      C2138   1.407       .  A
C2134      H2139   1.085       .  S
C2135      C2136   1.424       .  A
C2135      C2142   1.444       .  S
C2136      C2137   1.417       .  A
C2137      H2140   1.072       .  S
C2138      C2141   1.446       .  S
C2141      N2143   1.157       .  T
C2142      N2144   1.157       .  T
C2145      C2146   1.410       .  A
C2145      C2150   1.418       .  A
C2146      C2147   1.409       .  A
C2146      H2151   1.078       .  S
C2147      C2148   1.427       .  A
C2147      C2154   1.442       .  S
C2148      C2149   1.413       .  A
C2149      C2150   1.404       .  A
C2149      H2152   1.080       .  S
C2150      C2153   1.445       .  S
C2153      N2155   1.157       .  T
C2154      N2156   1.158       .  T
C2157      C2158   1.400       .  A
C2157      C2162   1.419       .  A
C2158      C2159   1.402       .  A
C2158      H2163   1.083       .  S
C2159      C2160   1.416       .  A
C2159      C2166   1.445       .  S
C2160      C2161   1.402       .  A
C2161      C2162   1.407       .  A
C2161      H2164   1.084       .  S
C2162      C2165   1.444       .  S
C2165      N2167   1.157       .  T
C2166      N2168   1.157       .  T
C2169      C2170   1.399       .  A
C2169      C2174   1.411       .  A
C2170      C2171   1.405       .  A
C2170      H2175   1.084       .  S
C2171      C2172   1.419       .  A
C2171      C2178   1.442       .  S
C2172      C2173   1.408       .  A
C2173      C2174   1.405       .  A
C2173      H2176   1.085       .  S
C2174      C2177   1.444       .  S
C2177      N2179   1.157       .  T
C2178      N2180   1.157       .  T
C2181      C2182   1.406       .  A
C2181      C2186   1.421       .  A
C2182      C2183   1.408       .  A
C2182      H2187   1.077       .  S
C2183      C2184   1.410   1_655  A
C2183      C2190   1.442       .  S
C2184      C2185   1.402   1_455  A
C2185      C2186   1.406       .  A
C2185      H2188   1.085   1_655  S
C2186      C2189   1.444       .  S
C2189      N2191   1.157       .  T
C2193      C2194   1.406       .  A
C2193      C2198   1.419       .  A
C2194      C2195   1.404       .  A
C2194      H2199   1.084       .  S
C2197      C2198   1.410       .  A
C2198      C2201   1.442       .  S
C2201      N2203   1.157       .  T
C2202      N2204   1.158       .  T
C2205      C2206   1.409       .  A
C2205      C2210   1.419       .  A
C2206      C2207   1.406       .  A
C2206      H2211   1.083       .  S
C2207      C2208   1.423       .  A
C2207      C2214   1.444       .  S
C2208      C2209   1.411       .  A
C2209      C2210   1.409       .  A
C2209      H2212   1.082       .  S
C2210      C2213   1.442       .  S
C2213      N2215   1.157       .  T
C2214      N2216   1.158       .  T
C2217      C2218   1.406       .  A
C2217      C2222   1.416       .  A
C2218      C2219   1.397       .  A
C2218      H2223   1.085       .  S
C2219      C2220   1.410       .  A
C2219      C2226   1.444       .  S
C2220      C2221   1.406       .  A
C2221      C2222   1.409       .  A
C2221      H2224   1.085       .  S
C2222      C2225   1.443       .  S
C2225      N2227   1.157       .  T
C2226      N2228   1.157       .  T
C2229      C2230   1.405       .  A
C2230      H2235   1.085       .  S
C2231      C2232   1.409       .  A
C2232      C2233   1.409       .  A
C2233      C2234   1.407       .  A
C2233      H2236   1.085       .  S
C2234      C2237   1.444       .  S
C2237      N2239   1.157       .  T
C2238      N2240   1.157       .  T
C2241      C2242   1.407       .  A
C2241      C2246   1.411       .  A
C2242      C2243   1.405       .  A
C2242      H2247   1.085       .  S
C2243      C2244   1.413       .  A
C2243      C2250   1.443       .  S
C2244      C2245   1.404       .  A
C2245      C2246   1.395       .  A
C2245      H2248   1.085       .  S
C2246      C2249   1.445       .  S
C2249      N2251   1.157       .  T
C2250      N2252   1.157       .  T
C2253      C2254   1.402       .  A
C2253      C2258   1.414       .  A
C2254      C2255   1.406       .  A
C2254      H2259   1.084       .  S
C2255      C2256   1.418       .  A
C2255      C2262   1.444       .  S
C2256      C2257   1.401       .  A
C2257      C2258   1.400       .  A
C2257      H2260   1.077       .  S
C2258      C2261   1.446       .  S
C2261      N2263   1.157       .  T
C2262      N2264   1.157       .  T
C2265      C2266   1.405       .  A
C2265      C2270   1.414       .  A
C2266      C2267   1.398       .  A
C2266      H2271   1.085       .  S
C2267      C2268   1.415       .  A
C2267      C2274   1.445       .  S
C2268      C2269   1.405       .  A
C2269      C2270   1.400       .  A
C2269      H2272   1.085       .  S
C2270      C2273   1.444       .  S
C2273      N2275   1.157   1_655  T
C2274      N2276   1.158       .  T
C2277      C2278   1.401       .  A
C2277      C2282   1.413       .  A
C2278      C2279   1.408       .  A
C2278      H2283   1.085       .  S
C2279      C2280   1.423       .  A
C2279      C2286   1.444       .  S
C2280      C2281   1.404       .  A
C2281      C2282   1.400       .  A
C2281      H2284   1.082       .  S
C2282      C2285   1.446       .  S
C2285      N2287   1.157       .  T
C2286      N2288   1.158       .  T
C2289      C2290   1.404       .  A
C2289      C2294   1.416       .  A
C2290      C2291   1.399       .  A
C2290      H2295   1.085       .  S
C2291      C2292   1.414       .  A
C2291      C2298   1.444       .  S
C2292      C2293   1.403       .  A
C2293      C2294   1.398       .  A
C2293      H2296   1.085       .  S
C2294      C2297   1.445       .  S
C2298      N2300   1.157       .  T
C2301      C2302   1.406       .  A
C2302      C2303   1.406       .  A
C2302      H2307   1.085       .  S
C2303      C2310   1.442       .  S
C2304      C2305   1.406       .  A
C2305      C2306   1.396       .  A
C2305      H2308   1.085       .  S
C2306      C2309   1.445       .  S
C2309      N2311   1.157       .  T
C2310      N2312   1.157       .  T
C2313      C2314   1.402       .  A
C2313      C2318   1.414       .  A
C2314      C2315   1.404       .  A
C2314      H2319   1.085       .  S
C2315      C2316   1.415       .  A
C2315      C2322   1.444       .  S
C2316      C2317   1.401       .  A
C2317      C2318   1.396       .  A
C2317      H2320   1.085       .  S
C2318      C2321   1.446       .  S
C2321      N2323   1.157       .  T
C2322      N2324   1.157       .  T
C2325      C2326   1.403       .  A
C2325      C2330   1.415       .  A
C2326      C2327   1.395       .  A
C2326      H2331   1.085       .  S
C2327      C2328   1.413       .  A
C2327      C2334   1.445       .  S
C2328      C2329   1.406       .  A
C2329      C2330   1.411       .  A
C2329      H2332   1.083       .  S
C2330      C2333   1.443       .  S
C2333      N2335   1.157       .  T
C2334      N2336   1.157       .  T
