geometry optimzed in LAMMPS
_audit_creation_date              2020-11-30 
_audit_creation_method            'lammps2cif' 
_symmetry_space_group_name_H-M    'P1' 
_symmetry_Int_Tables_number       1 
_symmetry_cell_setting            triclinic 
loop_ 
_symmetry_equiv_pos_as_xyz 
  x,y,z 
_cell_length_a                    30.36962245 
_cell_length_b                    29.452061181577893 
_cell_length_c                    51.83080626732738 
_cell_angle_alpha                 89.817628329665 
_cell_angle_beta                  85.16576835109974 
_cell_angle_gamma                 90.06331311840918 
loop_ 
_atom_site_label 
_atom_site_type_symbol 
_atom_site_fract_x 
_atom_site_fract_y 
_atom_site_fract_z 
_atom_site_charge 
O1          O  0.21996598  0.08262332  0.10415456    -0.73100
O2          O  0.21939313  0.17907984  0.04906950    -0.74000
O3          O  0.21725522  0.08345056  0.04928498    -0.62700
O4          O  0.22240173  0.18008751  0.10394307    -0.71100
O5          O  0.29538857  0.17829180  0.09857423    -0.70600
O6          O  0.29046076  0.08252371  0.04466436    -0.61900
O7          O  0.29246882  0.17746248  0.04431081    -0.74400
O8          O  0.29304000  0.08219908  0.09877851    -0.73200
Cu9        Cu  0.21710557  0.13143887  0.07692789     1.04600
Cu10       Cu  0.29524858  0.13011653  0.07155259     1.04300
C11         C  0.25698913  0.06632539  0.10973221     0.93100
C12         C  0.25584397  0.19251687  0.03740381     0.92300
C13         C  0.25333482  0.06838266  0.03799002     0.84400
C14         C  0.25992505  0.19505430  0.10963755     0.90700
C15         C  0.21577778  0.13292369  0.77392699     0.86400
C16         C  0.21720726  0.09512863  0.79425928    -0.53900
C17         C  0.25424264  0.09485736  0.80731775     0.09300
C18         C  0.28704433  0.13319653  0.79918615     0.20200
C19         C  0.22241108  0.17686850  0.78941163    -0.54600
C20         C  0.25950399  0.17695500  0.80259990     0.09400
C21         C  0.25920047  0.12825484  0.75655193    -0.54100
C22         C  0.29657670  0.12868360  0.76958018     0.10000
H23         H  0.19085907  0.07039158  0.79804802     0.14500
H24         H  0.31704622  0.13329240  0.81005475     0.00200
H25         H  0.19990458  0.20527326  0.79113349     0.14800
H26         H  0.26010271  0.12464676  0.73567418     0.14600
O27         O  0.30543372  0.33524289  0.88550601    -0.73100
O28         O  0.29867638  0.42754450  0.94253235    -0.74000
O29         O  0.30026937  0.33220096  0.94039686    -0.62700
O30         O  0.30338844  0.43230268  0.88751848    -0.71100
O31         O  0.23013051  0.43134318  0.88980071    -0.70600
O32         O  0.22721120  0.33063122  0.94173910    -0.61900
O33         O  0.22551130  0.42599134  0.94443323    -0.74400
O34         O  0.23211842  0.33444255  0.88688463    -0.73200
Cu35       Cu  0.30452278  0.38188587  0.91381250     1.04600
Cu36       Cu  0.22623149  0.38054055  0.91561785     1.04300
C37         C  0.26970993  0.31973734  0.87757904     0.93100
C38         C  0.26118307  0.44046088  0.95298581     0.92300
C39         C  0.26322236  0.31622607  0.94986116     0.84400
C40         C  0.26697993  0.44829904  0.88072027     0.90700
C41         C  0.31676455  0.38291714  0.21662552     0.86400
C42         C  0.31521084  0.34135968  0.19886051    -0.53900
C43         C  0.27974775  0.33979210  0.18432693     0.09300
C44         C  0.24775445  0.37999178  0.18946740     0.20200
C45         C  0.31282529  0.42373947  0.19822764    -0.54600
C46         C  0.27728510  0.42185153  0.18382403     0.09400
C47         C  0.27224503  0.38250821  0.23307953    -0.54100
C48         C  0.23605632  0.38085937  0.21908705     0.10000
H49         H  0.34053955  0.31530110  0.19792306     0.14500
H50         H  0.21863574  0.37909996  0.17787646     0.00200
H51         H  0.33535320  0.45213596  0.19603202     0.14800
H52         H  0.26965062  0.38285655  0.25410300     0.14600
O53         O  0.04190760  0.31601151  0.54804343    -0.73100
O54         O  0.03890664  0.41823637  0.59824581    -0.74000
O55         O  0.03836774  0.32243359  0.60272760    -0.62700
O56         O  0.04184960  0.41104615  0.54384640    -0.71100
O57         O  0.46878369  0.41289784  0.54681911    -0.70600
O58         O  0.46514603  0.32049699  0.60393390    -0.61900
O59         O  0.46570079  0.41797924  0.60187864    -0.74400
O60         O  0.46894175  0.31726801  0.54899164    -0.73200
Cu61       Cu  0.04270575  0.36693389  0.57325935     1.04600
Cu62       Cu  0.46448345  0.36716132  0.57561291     1.04300
C63         C  0.00609635  0.30126313  0.53989350     0.93100
C64         C  0.50233856  0.43491744  0.60781453     0.92300
C65         C  0.50128384  0.30668922  0.61215084     0.84400
C66         C  0.00585275  0.42579600  0.53582280     0.90700
O67         O  0.48455558  0.06693618  0.44053998    -0.73100
O68         O  0.49217275  0.16816447  0.38911894    -0.74000
O69         O  0.49438847  0.07240344  0.38577296    -0.62700
O70         O  0.48265541  0.16238543  0.44362648    -0.71100
O71         O  0.05566849  0.16459002  0.44375468    -0.70600
O72         O  0.06738335  0.07187790  0.38709180    -0.61900
O73         O  0.06527184  0.16886865  0.38856311    -0.74400
O74         O  0.05740784  0.06887861  0.44178703    -0.73200
Cu75       Cu  0.48596880  0.11741037  0.41464706     1.04600
Cu76       Cu  0.06405003  0.11864731  0.41524421     1.04300
C77         C  0.01973820  0.05234593  0.44971605     0.93100
C78         C  0.02955437  0.18477454  0.38072649     0.92300
C79         C  0.03252395  0.05741375  0.37766792     0.84400
C80         C  0.01739053  0.17758536  0.45297103     0.90700
C81         C  0.47730191  0.36980189  0.27474455     0.86400
C82         C  0.48149529  0.32848437  0.29269113    -0.53900
C83         C  0.01853768  0.32866202  0.30575815     0.09300
C84         C  0.04928481  0.36937977  0.29932269     0.20200
C85         C  0.48198753  0.41061538  0.29271480    -0.54600
C86         C  0.01971308  0.41107221  0.30536254     0.09400
C87         C  0.02048349  0.36912712  0.25684146    -0.54100
C88         C  0.05805961  0.36916341  0.26964578     0.10000
H89         H  0.45754577  0.30154657  0.29609558     0.14500
H90         H  0.08011962  0.36881120  0.30933849     0.00200
H91         H  0.45697849  0.43692335  0.29530251     0.14800
H92         H  0.02119504  0.36996346  0.23586348     0.14600
C93         C  0.05575045  0.11669358  0.71572806     0.86400
C94         C  0.05186487  0.07541216  0.69774705    -0.53900
C95         C  0.01500337  0.07574808  0.68437672     0.09300
C96         C  0.48514030  0.11716721  0.68995564     0.20200
C97         C  0.05278659  0.15739840  0.69736485    -0.54600
C98         C  0.01577829  0.15842320  0.68408507     0.09400
C99         C  0.01193419  0.11690677  0.73289911    -0.54100
C100        C  0.47499776  0.11704768  0.71952780     0.10000
H101        H  0.07616642  0.04881044  0.69443489     0.14500
H102        H  0.45496470  0.11707800  0.67932363     0.00200
H103        H  0.07835282  0.18325826  0.69499585     0.14800
H104        H  0.01047010  0.11803393  0.75388991     0.14600
C105        C  0.02967361  0.44898515  0.32301354    -0.00300
C106        C  0.01844675  0.49343907  0.31591654    -0.12200
C107        C  0.02098287  0.02959621  0.33312913     0.02000
C108        C  0.03574215  0.02198256  0.35773915    -0.00400
C109        C  0.04999256  0.47869348  0.36425324    -0.12100
C110        C  0.04700650  0.44207639  0.34727669     0.01800
H111        H  0.50670127  0.99973572  0.29711550     0.14800
H112        H  0.06150528  0.47298499  0.38326100     0.14800
C113        C  0.05968586  0.39794524  0.35623866     0.36500
C114        C  0.50838180  0.07443995  0.32508183     0.36400
N115        N  0.07059651  0.36311363  0.36388395    -0.43900
N116        N  0.49856918  0.11043664  0.31864461    -0.43900
C117        C  0.03035465  0.22348842  0.36239099    -0.00300
C118        C  0.49474755  0.25386973  0.36483456    -0.12200
C119        C  0.49153124  0.28938903  0.34725426     0.02000
C120        C  0.02433429  0.29505578  0.32649866    -0.00400
C121        C  0.06110872  0.26616322  0.32463102    -0.12100
C122        C  0.06430934  0.23030911  0.34233494     0.01800
H123        H  0.46898843  0.24971318  0.38048611     0.14800
H124        H  0.08632307  0.27043229  0.30870911     0.14800
C125        C  0.10113912  0.19947278  0.33843991     0.39700
C126        C  0.45420418  0.31976274  0.35102718     0.36400
N127        N  0.13059000  0.17465247  0.33522387    -0.43900
N128        N  0.42424092  0.34397180  0.35407988    -0.43900
C129        C  0.00770856  0.45720597  0.51329352    -0.00300
C130        C  0.04759558  0.96001790  0.49727195    -0.12200
C131        C  0.05191266  0.98947134  0.47598686     0.02000
C132        C  0.01612254  0.01746159  0.47046906    -0.00400
C133        C  0.97607408  0.51459565  0.48645162    -0.12100
C134        C  0.97177071  0.48509946  0.50771937     0.01800
H135        H  0.07546401  0.93883906  0.50120443     0.14800
H136        H  0.94865403  0.53667101  0.48287785     0.14800
C137        C  0.93057605  0.48574200  0.52382406     0.36500
C138        C  0.09315676  0.98930359  0.45992167     0.36400
N139        N  0.89744505  0.48648055  0.53660696    -0.43900
N140        N  0.12621806  0.98900810  0.44706571    -0.43900
C141        C  0.01342325  0.20921439  0.47521388    -0.00300
C142        C  0.04596669  0.20798826  0.49290252    -0.12200
C143        C  0.04364420  0.23646577  0.51452264     0.02000
C144        C  0.00806287  0.26722951  0.51881745    -0.00400
C145        C  0.47493758  0.26752616  0.50159313    -0.12100
C146        C  0.97770600  0.23974381  0.47956595     0.01800
H147        H  0.07322190  0.18425734  0.48999892     0.14800
H148        H  0.44764613  0.29119850  0.50453007     0.14800
C149        C  0.44357659  0.24360446  0.46200043     0.36500
C150        C  0.07784186  0.23253581  0.53215608     0.36400
N151        N  0.41660976  0.24741426  0.44764264    -0.43900
N152        N  0.10534570  0.22924733  0.54620495    -0.43900
C153        C  0.00320161  0.47380269  0.62589430    -0.00300
C154        C  0.46887806  0.47935391  0.64565759    -0.12200
C155        C  0.47121398  0.01329621  0.66455086     0.02000
C156        C  0.00852608  0.04193677  0.66393863    -0.00400
C157        C  0.04157522  0.03795300  0.64354604    -0.12100
C158        C  0.03888394  0.00502101  0.62442631     0.01800
H159        H  0.44090917  0.45631194  0.64683797     0.14800
H160        H  0.06956532  0.06101057  0.64249319     0.14800
C161        C  0.07297919  0.50463778  0.60314461     0.36500
C162        C  0.43588344  0.01689938  0.68487058     0.36400
N163        N  0.10003017  0.50478227  0.58602256    -0.43900
N164        N  0.40739893  0.01975442  0.70107660    -0.43900
C165        C  0.00721115  0.19664384  0.66617721    -0.00300
C166        C  0.51874474  0.24097178  0.67329110    -0.12200
C167        C  0.51604658  0.27761347  0.65623866     0.02000
C168        C  0.00039923  0.27051458  0.63177422    -0.00400
C169        C  0.98676101  0.22703685  0.62503890    -0.12100
C170        C  0.99044621  0.19004200  0.64177654     0.01800
H171        H  0.53059700  0.24702644  0.69213964     0.14800
H172        H  0.97509365  0.22159844  0.60606130     0.14800
C173        C  0.97933077  0.14581228  0.63236536     0.36500
C174        C  0.52923616  0.32219062  0.66423451     0.36400
N175        N  0.96988711  0.11089921  0.62424781    -0.43900
N176        N  0.53970760  0.35792965  0.67066446    -0.43900
C177        C  0.18998236  0.37946507  0.23161404    -0.00300
C178        C  0.16129757  0.34508667  0.22467561    -0.12200
C179        C  0.11824796  0.34124053  0.23655747     0.02000
C180        C  0.10325835  0.37192647  0.25621551    -0.00400
C181        C  0.13186873  0.40635080  0.26328073    -0.12100
C182        C  0.17465218  0.41071458  0.25098288     0.01800
H183        H  0.17285633  0.32023355  0.21050136     0.14800
H184        H  0.12040260  0.43052359  0.27810123     0.14800
C185        C  0.20149075  0.44855335  0.25789312     0.36500
C186        C  0.09077859  0.30446348  0.22887239     0.36400
N187        N  0.22298423  0.47896416  0.26333748    -0.43900
N188        N  0.06876554  0.27506490  0.22260582    -0.43900
C189        C  0.35726274  0.38114921  0.23268914    -0.00300
C190        C  0.39083755  0.41447156  0.23028093    -0.12200
C191        C  0.42907832  0.41099032  0.24352974     0.02000
C192        C  0.43539640  0.37340491  0.25997549    -0.00400
C193        C  0.40146003  0.34054570  0.26272161    -0.12100
C194        C  0.36318340  0.34411035  0.24956575     0.01800
H195        H  0.38855656  0.44366337  0.21795778     0.14800
H196        H  0.40368425  0.31133997  0.27502598     0.14800
C197        C  0.33065899  0.30832132  0.25360304     0.36500
C198        C  0.46135080  0.44710222  0.23982266     0.36400
N199        N  0.30464587  0.27966714  0.25680187    -0.43900
N200        N  0.48709099  0.47607876  0.23694643    -0.43900
C201        C  0.17423405  0.12889147  0.75890962    -0.00300
C202        C  0.14179508  0.16317368  0.75973287    -0.12200
C203        C  0.10339606  0.15880263  0.74675017     0.02000
C204        C  0.09646166  0.11992574  0.73149896    -0.00400
C205        C  0.12826244  0.08508108  0.73124840    -0.12100
C206        C  0.16633384  0.08911464  0.74459419     0.01800
H207        H  0.14508291  0.19376747  0.77069593     0.14800
H208        H  0.12399600  0.05379779  0.72105058     0.14800
C209        C  0.19645199  0.05102574  0.74353089     0.36500
C210        C  0.07132631  0.19508523  0.74976835     0.36400
N211        N  0.22042762  0.02045071  0.74283122    -0.43900
N212        N  0.04559078  0.22402722  0.75229421    -0.43900
C213        C  0.34209393  0.12610427  0.75631470    -0.00300
C214        C  0.37255803  0.09591626  0.76586860    -0.12200
C215        C  0.41537691  0.09136327  0.75383289     0.02000
C216        C  0.42925630  0.11891567  0.73231737    -0.00400
C217        C  0.39894103  0.14929781  0.72274376    -0.12100
C218        C  0.35572199  0.15301737  0.73441363     0.01800
H219        H  0.36277250  0.07507716  0.78245862     0.14800
H220        H  0.40928016  0.17089250  0.70634853     0.14800
C221        C  0.32680564  0.18611607  0.72411294     0.36500
C222        C  0.44340295  0.05633272  0.76308525     0.36400
N223        N  0.30361769  0.21252756  0.71575275    -0.43900
N224        N  0.46577650  0.02806638  0.77036131    -0.43900
C225        C  0.27168050  0.28327437  0.85812918    -0.00300
C226        C  0.27040996  0.29440794  0.83190956    -0.12200
C227        C  0.26879681  0.26023325  0.81322241     0.02000
C228        C  0.26852823  0.21403859  0.82079361    -0.00400
C229        C  0.27183874  0.20306391  0.84690950    -0.12100
C230        C  0.27301619  0.23724636  0.86559533     0.01800
H231        H  0.26980569  0.32981297  0.82611482     0.14800
H232        H  0.27120850  0.16773520  0.85291576     0.14800
C233        C  0.27349376  0.22434950  0.89247298     0.36500
C234        C  0.26733762  0.27337583  0.78644364     0.36400
N235        N  0.27361677  0.21398064  0.91402019    -0.43900
N236        N  0.26611370  0.28396600  0.76499542    -0.43900
C237        C  0.26043152  0.06073087  0.82781021    -0.00300
C238        C  0.29526934  0.02956458  0.82433747    -0.12200
C239        C  0.29903298  0.49337031  0.84169223     0.02000
C240        C  0.26677719  0.48744061  0.86270772    -0.00400
C241        C  0.23249676  0.51935314  0.86648606    -0.12100
C242        C  0.22932104  0.05594365  0.84943080     0.01800
H243        H  0.31835313  0.03202139  0.80744389     0.14800
H244        H  0.20801115  0.51572901  0.88284697     0.14800
C245        C  0.19388752  0.08818894  0.85456514     0.36500
C246        C  0.33474523  0.46148364  0.83650865     0.36400
N247        N  0.16554752  0.11407092  0.85870063    -0.43900
N248        N  0.36343142  0.43601602  0.83231423    -0.43900
C249        C  0.27458754  0.30408006  0.16434633    -0.00300
C250        C  0.23277828  0.28501225  0.16190352    -0.12200
C251        C  0.22679915  0.24945812  0.14457074     0.02000
C252        C  0.26330357  0.23261105  0.12865379    -0.00400
C253        C  0.30483075  0.25303006  0.13042018    -0.12100
C254        C  0.31070912  0.28840412  0.14773200     0.01800
H255        H  0.20454898  0.29729221  0.17381222     0.14800
H256        H  0.33314677  0.24173109  0.11794661     0.14800
C257        C  0.35399742  0.30894120  0.14702611     0.36500
C258        C  0.18292276  0.23072678  0.14409861     0.36400
N259        N  0.38893526  0.32484341  0.14635168    -0.43900
N260        N  0.14766294  0.21586780  0.14386187    -0.43900
C261        C  0.25934201  0.02791895  0.12827881    -0.00300
C262        C  0.29924197  0.00369971  0.12766686    -0.12200
C263        C  0.30494056  0.46817906  0.14481039     0.02000
C264        C  0.27042166  0.45608432  0.16351066    -0.00400
C265        C  0.22974446  0.47859321  0.16358357    -0.12100
C266        C  0.22387528  0.01431305  0.14618850     0.01800
H267        H  0.32643967  0.01243568  0.11360154     0.14800
H268        H  0.20301961  0.46918548  0.17781638     0.14800
C269        C  0.18162180  0.03694976  0.14781860     0.36500
C270        C  0.34671069  0.44451914  0.14245846     0.36400
N271        N  0.14759085  0.05482930  0.14923892    -0.43900
N272        N  0.38050412  0.42622333  0.14037647    -0.43900
C273        C  0.25637954  0.22424087  0.01504688    -0.00300
C274        C  0.29611185  0.22935063  0.99927780    -0.12200
C275        C  0.29895777  0.25770269  0.97754904     0.02000
C276        C  0.26148856  0.28247101  0.97124004    -0.00400
C277        C  0.22148460  0.27669542  0.98666057    -0.12100
C278        C  0.21850977  0.24795703  0.00828589     0.01800
H279        H  0.32528465  0.21059682  0.00367450     0.14800
H280        H  0.19235553  0.29540816  0.98214505     0.14800
C281        C  0.17622282  0.24425727  0.02314581     0.36500
C282        C  0.34059781  0.25952308  0.96189825     0.36400
N283        N  0.14221767  0.24128923  0.03491842    -0.43900
N284        N  0.37402137  0.26068921  0.94941126    -0.43900
C285        C  0.25304341  0.03453118  0.01688821    -0.00300
C286        C  0.28946789  0.00533628  0.01282354    -0.12200
C287        C  0.29242181  0.47408492  0.99255890     0.02000
C288        C  0.25890018  0.47217527  0.97524249    -0.00400
C289        C  0.22194374  0.50069410  0.97956645    -0.12100
C290        C  0.21869186  0.03164050  0.00015704     0.01800
H291        H  0.31562869  0.00648322  0.02582539     0.14800
H292        H  0.19579978  0.49936387  0.96656755     0.14800
C293        C  0.18036656  0.06074881  0.00300938     0.36500
C294        C  0.32922666  0.44290287  0.99098143     0.36400
N295        N  0.14949230  0.08386431  0.00522531    -0.43900
N296        N  0.35857757  0.41776364  0.99002189    -0.43900
O297        O  0.21987802  0.58264713  0.10414319    -0.73100
O298        O  0.21924781  0.67911868  0.04906545    -0.74000
O299        O  0.21712522  0.58347946  0.04927559    -0.62700
O300        O  0.22230997  0.68011172  0.10393909    -0.71100
O301        O  0.29529651  0.67830446  0.09855873    -0.70600
O302        O  0.29033058  0.58258279  0.04464334    -0.61900
O303        O  0.29232504  0.67751536  0.04430250    -0.74400
O304        O  0.29295068  0.58222034  0.09874853    -0.73200
Cu305      Cu  0.21698981  0.63146849  0.07692108     1.04600
Cu306      Cu  0.29513290  0.63015417  0.07153234     1.04300
C307        C  0.25690646  0.56634655  0.10971047     0.93100
C308        C  0.25569551  0.69256611  0.03740023     0.92300
C309        C  0.25320728  0.56842000  0.03797863     0.84400
C310        C  0.25984104  0.69506393  0.10963124     0.90700
C311        C  0.21577518  0.63283329  0.77392650     0.86400
C312        C  0.21722472  0.59505700  0.79426836    -0.53900
C313        C  0.25425807  0.59482237  0.80732896     0.09300
C314        C  0.28704002  0.63317400  0.79918716     0.20200
C315        C  0.22238386  0.67679607  0.78939991    -0.54600
C316        C  0.25947583  0.67691937  0.80258889     0.09400
C317        C  0.25920146  0.62817902  0.75655299    -0.54100
C318        C  0.29657588  0.62864010  0.76958249     0.10000
H319        H  0.19089035  0.57030643  0.79806254     0.14500
H320        H  0.31704243  0.63329670  0.81005532     0.00200
H321        H  0.19986110  0.70518681  0.79111536     0.14800
H322        H  0.26010921  0.62455926  0.73567569     0.14600
O323        O  0.30529718  0.83521419  0.88549241    -0.73100
O324        O  0.29863981  0.92753476  0.94250254    -0.74000
O325        O  0.30014098  0.83219265  0.94038068    -0.62700
O326        O  0.30331891  0.93227527  0.88748472    -0.71100
O327        O  0.23005960  0.93136835  0.88978213    -0.70600
O328        O  0.22708002  0.83067657  0.94173044    -0.61900
O329        O  0.22547242  0.92604171  0.94441979    -0.74400
O330        O  0.23198168  0.83446453  0.88687134    -0.73200
Cu331      Cu  0.30442886  0.88186539  0.91378858     1.04600
Cu332      Cu  0.22613583  0.88057878  0.91560466     1.04300
C333        C  0.26956473  0.81973096  0.87756681     0.93100
C334        C  0.26116375  0.94048001  0.95296510     0.92300
C335        C  0.26308366  0.81624869  0.94985031     0.84400
C336        C  0.26691562  0.94829422  0.88069128     0.90700
C337        C  0.31678839  0.88285829  0.21663389     0.86400
C338        C  0.31521866  0.84130115  0.19886855    -0.53900
C339        C  0.27974441  0.83974281  0.18434298     0.09300
C340        C  0.24776623  0.87995621  0.18948484     0.20200
C341        C  0.31285131  0.92368162  0.19823815    -0.54600
C342        C  0.27731241  0.92180289  0.18383533     0.09400
C343        C  0.27227359  0.88245956  0.23309309    -0.54100
C344        C  0.23607432  0.88083685  0.21910682     0.10000
H345        H  0.34054701  0.81524106  0.19792003     0.14500
H346        H  0.21864599  0.87907253  0.17789500     0.00200
H347        H  0.33537848  0.95207752  0.19604316     0.14800
H348        H  0.26969301  0.88279920  0.25411632     0.14600
O349        O  0.04218624  0.81619670  0.54815596    -0.73100
O350        O  0.03893581  0.91832492  0.59842204    -0.74000
O351        O  0.03849433  0.82250201  0.60286330    -0.62700
O352        O  0.04204324  0.91122164  0.54403100    -0.71100
O353        O  0.46882496  0.91287132  0.54685430    -0.70600
O354        O  0.46513336  0.82051348  0.60399535    -0.61900
O355        O  0.46569425  0.91799438  0.60191204    -0.74400
O356        O  0.46897277  0.81723546  0.54905422    -0.73200
Cu357      Cu  0.04285976  0.86706463  0.57341663     1.04600
Cu358      Cu  0.46449638  0.86715445  0.57566057     1.04300
C359        C  0.00642220  0.80131379  0.54001109     0.93100
C360        C  0.50232860  0.93492538  0.60785776     0.92300
C361        C  0.50126547  0.80669343  0.61221424     0.84400
C362        C  0.00607174  0.92585620  0.53591874     0.90700
O363        O  0.48442184  0.56695156  0.44048898    -0.73100
O364        O  0.49215324  0.66825557  0.38911508    -0.74000
O365        O  0.49432282  0.57249528  0.38572078    -0.62700
O366        O  0.48257000  0.66239371  0.44362860    -0.71100
O367        O  0.05545654  0.66439808  0.44383560    -0.70600
O368        O  0.06723457  0.57181398  0.38711481    -0.61900
O369        O  0.06526116  0.66878785  0.38865366    -0.74400
O370        O  0.05706624  0.56865454  0.44179283    -0.73200
Cu371      Cu  0.48589191  0.61746589  0.41461920     1.04600
Cu372      Cu  0.06387103  0.61850350  0.41529965     1.04300
C373        C  0.01934192  0.55217759  0.44966178     0.93100
C374        C  0.02958676  0.68478677  0.38081176     0.92300
C375        C  0.03239052  0.55744789  0.37763529     0.84400
C376        C  0.01718988  0.67739561  0.45307888     0.90700
C377        C  0.47734171  0.86980344  0.27474141     0.86400
C378        C  0.48157705  0.82846321  0.29266453    -0.53900
C379        C  0.01864815  0.82855859  0.30578653     0.09300
C380        C  0.04934507  0.86932007  0.29936981     0.20200
C381        C  0.48200550  0.91059566  0.29273116    -0.54600
C382        C  0.01974153  0.91096862  0.30546074     0.09400
C383        C  0.02046611  0.86915751  0.25691231    -0.54100
C384        C  0.05807144  0.86918789  0.26969087     0.10000
H385        H  0.45764310  0.80151027  0.29606700     0.14500
H386        H  0.08019603  0.86875400  0.30937055     0.00200
H387        H  0.45697979  0.93688444  0.29533442     0.14800
H388        H  0.02113516  0.87005821  0.23593684     0.14600
C389        C  0.05576103  0.61649181  0.71572716     0.86400
C390        C  0.05187868  0.57521408  0.69774438    -0.53900
C391        C  0.01503356  0.57556559  0.68435671     0.09300
C392        C  0.48514397  0.61710816  0.68995846     0.20200
C393        C  0.05282797  0.65719685  0.69736496    -0.54600
C394        C  0.01582929  0.65825378  0.68408018     0.09400
C395        C  0.01193355  0.61671528  0.73288629    -0.54100
C396        C  0.47499507  0.61701426  0.71952991     0.10000
H397        H  0.07617303  0.54860109  0.69444734     0.14500
H398        H  0.45497218  0.61702839  0.67932255     0.00200
H399        H  0.07840471  0.68304762  0.69500827     0.14800
H400        H  0.01045760  0.61784607  0.75387718     0.14600
C401        C  0.02972996  0.94888840  0.32309585    -0.00300
C402        C  0.01847961  0.99332926  0.31599298    -0.12200
C403        C  0.02092573  0.52969027  0.33306945     0.02000
C404        C  0.03562762  0.52204417  0.35769022    -0.00400
C405        C  0.05012522  0.97863949  0.36430799    -0.12100
C406        C  0.04711501  0.94200416  0.34734486     0.01800
H407        H  0.50673219  0.49975251  0.29706706     0.14800
H408        H  0.06167617  0.97295316  0.38330784     0.14800
C409        C  0.05983539  0.89788154  0.35629928     0.36500
C410        C  0.50837652  0.57447823  0.32501925     0.36400
N411        N  0.07078025  0.86305372  0.36393246    -0.43900
N412        N  0.49857094  0.61046860  0.31856725    -0.43900
C413        C  0.03047624  0.72351346  0.36248585    -0.00300
C414        C  0.49483443  0.75398125  0.36484573    -0.12200
C415        C  0.49163551  0.78947714  0.34724984     0.02000
C416        C  0.02447543  0.79499317  0.32654130    -0.00400
C417        C  0.06116622  0.76598641  0.32463618    -0.12100
C418        C  0.06436154  0.73017930  0.34237242     0.01800
H419        H  0.46909075  0.74987537  0.38051051     0.14800
H420        H  0.08631193  0.77013413  0.30866682     0.14800
C421        C  0.10110146  0.69923358  0.33845866     0.39700
C422        C  0.45433517  0.81988628  0.35101750     0.36400
N423        N  0.13048284  0.67432946  0.33523214    -0.43900
N424        N  0.42438918  0.84411832  0.35406617    -0.43900
C425        C  0.00800231  0.95726898  0.51336788    -0.00300
C426        C  0.04676470  0.45890268  0.49667811    -0.12200
C427        C  0.05096091  0.48831567  0.47537162     0.02000
C428        C  0.01562772  0.51730227  0.47038708    -0.00400
C429        C  0.97608025  0.01368897  0.48601227    -0.12100
C430        C  0.97166301  0.98413835  0.50725597     0.01800
H431        H  0.07425573  0.43690881  0.50021274     0.14800
H432        H  0.94827489  0.03493737  0.48203855     0.14800
C433        C  0.92982134  0.98360394  0.52273157     0.36500
C434        C  0.09150908  0.48705441  0.45868611     0.36400
N435        N  0.89616214  0.98339832  0.53499844    -0.43900
N436        N  0.12398698  0.48589092  0.44531280    -0.43900
C437        C  0.01327683  0.70900600  0.47536941    -0.00300
C438        C  0.04686272  0.70907002  0.49240831    -0.12200
C439        C  0.04480610  0.73762232  0.51399241     0.02000
C440        C  0.00842118  0.76721743  0.51893446    -0.00400
C441        C  0.47473175  0.76720573  0.50180082    -0.12100
C442        C  0.97671393  0.73829249  0.48040829     0.01800
H443        H  0.07479907  0.68630191  0.48902360     0.14800
H444        H  0.44727648  0.79065174  0.50485812     0.14800
C445        C  0.44296189  0.74295172  0.46240627     0.36500
C446        C  0.08020637  0.73497249  0.53088601     0.36400
N447        N  0.41570775  0.74649955  0.44821314    -0.43900
N448        N  0.10868669  0.73270757  0.54433057    -0.43900
C449        C  0.00312232  0.97396762  0.62595052    -0.00300
C450        C  0.46888866  0.97937141  0.64569860    -0.12200
C451        C  0.47119298  0.51326198  0.66452175     0.02000
C452        C  0.00857949  0.54175594  0.66390774    -0.00400
C453        C  0.04170390  0.53769556  0.64356143    -0.12100
C454        C  0.03904022  0.50476507  0.62443612     0.01800
H455        H  0.44094033  0.95630225  0.64690362     0.14800
H456        H  0.06974125  0.56069023  0.64255083     0.14800
C457        C  0.07269608  0.00498258  0.60306565     0.36500
C458        C  0.43581900  0.51688905  0.68481389     0.36400
N459        N  0.09963276  0.00519421  0.58588282    -0.43900
N460        N  0.40729587  0.51976311  0.70099536    -0.43900
C461        C  0.00727645  0.69653565  0.66620736    -0.00300
C462        C  0.51875665  0.74090882  0.67332510    -0.12200
C463        C  0.51604848  0.77757163  0.65628916     0.02000
C464        C  0.00050127  0.77052530  0.63187419    -0.00400
C465        C  0.98681784  0.72707693  0.62510492    -0.12100
C466        C  0.99049883  0.69002252  0.64180428     0.01800
H467        H  0.53062466  0.74693828  0.69217207     0.14800
H468        H  0.97513216  0.72170482  0.60612617     0.14800
C469        C  0.97939839  0.64581788  0.63234971     0.36500
C470        C  0.52927873  0.82212993  0.66429340     0.36400
N471        N  0.96998759  0.61091501  0.62420483    -0.43900
N472        N  0.53979038  0.85785080  0.67073092    -0.43900
C473        C  0.18999529  0.87948287  0.23163806    -0.00300
C474        C  0.16122717  0.84524161  0.22462587    -0.12200
C475        C  0.11817657  0.84141189  0.23650197     0.02000
C476        C  0.10325764  0.87197872  0.25623871    -0.00400
C477        C  0.13194028  0.90628788  0.26337125    -0.12100
C478        C  0.17472760  0.91064066  0.25107349     0.01800
H479        H  0.17272047  0.82046496  0.21038768     0.14800
H480        H  0.12052948  0.93038316  0.27824668     0.14800
C481        C  0.20162933  0.94838597  0.25804880     0.36500
C482        C  0.09063152  0.80477034  0.22872299     0.36400
N483        N  0.22317686  0.97872182  0.26354243    -0.43900
N484        N  0.06855650  0.77548646  0.22237586    -0.43900
C485        C  0.35729325  0.88109767  0.23269286    -0.00300
C486        C  0.39085459  0.91443589  0.23028718    -0.12200
C487        C  0.42909148  0.91097700  0.24353944     0.02000
C488        C  0.43542684  0.87339277  0.25998148    -0.00400
C489        C  0.40150132  0.84052105  0.26273018    -0.12100
C490        C  0.36322492  0.84406594  0.24957201     0.01800
H491        H  0.38856659  0.94362878  0.21796658     0.14800
H492        H  0.40373119  0.81132477  0.27504099     0.14800
C493        C  0.33070961  0.80826955  0.25361352     0.36500
C494        C  0.46134206  0.94711108  0.23983945     0.36400
N495        N  0.30470427  0.77960909  0.25681771    -0.43900
N496        N  0.48706531  0.97610423  0.23696828    -0.43900
C497        C  0.17423098  0.62876216  0.75891216    -0.00300
C498        C  0.14176739  0.66301857  0.75973819    -0.12200
C499        C  0.10336990  0.65861798  0.74675872     0.02000
C500        C  0.09645824  0.61973344  0.73150837    -0.00400
C501        C  0.12828097  0.58491060  0.73125596    -0.12100
C502        C  0.16635335  0.58897484  0.74459991     0.01800
H503        H  0.14503426  0.69361653  0.77070014     0.14800
H504        H  0.12403465  0.55362800  0.72105286     0.14800
C505        C  0.19650095  0.55091112  0.74353511     0.36500
C506        C  0.07128569  0.69488857  0.74977203     0.36400
N507        N  0.22050308  0.52035814  0.74283403    -0.43900
N508        N  0.04554163  0.72382339  0.75229261    -0.43900
C509        C  0.34209394  0.62607158  0.75631825    -0.00300
C510        C  0.37255500  0.59587159  0.76586352    -0.12200
C511        C  0.41537124  0.59132001  0.75382518     0.02000
C512        C  0.42925298  0.61888744  0.73231727    -0.00400
C513        C  0.39894138  0.64928335  0.72275146    -0.12100
C514        C  0.35572241  0.65300032  0.73442402     0.01800
H515        H  0.36276905  0.57502090  0.78244708     0.14800
H516        H  0.40928274  0.67088689  0.70636055     0.14800
C517        C  0.32680361  0.68610878  0.72413441     0.36500
C518        C  0.44339321  0.55627418  0.76306507     0.36400
N519        N  0.30361148  0.71252829  0.71578514    -0.43900
N520        N  0.46576620  0.52799618  0.77032891    -0.43900
C521        C  0.27152669  0.78326640  0.85811695    -0.00300
C522        C  0.27020266  0.79439538  0.83190022    -0.12200
C523        C  0.26864649  0.76021640  0.81321108     0.02000
C524        C  0.26846762  0.71402126  0.82077869    -0.00400
C525        C  0.27183458  0.70305571  0.84689043    -0.12100
C526        C  0.27297746  0.73724147  0.86557669     0.01800
H527        H  0.26953330  0.82979876  0.82610798     0.14800
H528        H  0.27128281  0.66772626  0.85289419     0.14800
C529        C  0.27355053  0.72434421  0.89244856     0.36500
C530        C  0.26717654  0.77335481  0.78643234     0.36400
N531        N  0.27375413  0.71396839  0.91399041    -0.43900
N532        N  0.26595108  0.78394221  0.76498372    -0.43900
C533        C  0.26046248  0.56071894  0.82783166    -0.00300
C534        C  0.29532088  0.52957561  0.82437053    -0.12200
C535        C  0.29896517  0.99334400  0.84165183     0.02000
C536        C  0.26672290  0.98743348  0.86267633    -0.00400
C537        C  0.23246009  0.01936400  0.86646251    -0.12100
C538        C  0.22935000  0.55592794  0.84945110     0.01800
H539        H  0.31841112  0.53203722  0.80748153     0.14800
H540        H  0.20797951  0.01574858  0.88282662     0.14800
C541        C  0.19391273  0.58816947  0.85458306     0.36500
C542        C  0.33463777  0.96141807  0.83644855     0.36400
N543        N  0.16557303  0.61405216  0.85871783    -0.43900
N544        N  0.36328947  0.93591669  0.83223518    -0.43900
C545        C  0.27456436  0.80403671  0.16436182    -0.00300
C546        C  0.23276301  0.78493392  0.16194783    -0.12200
C547        C  0.22676262  0.74939532  0.14461127     0.02000
C548        C  0.26324224  0.73259948  0.12865585    -0.00400
C549        C  0.30476500  0.75304443  0.13039568    -0.12100
C550        C  0.31066247  0.78840154  0.14771546     0.01800
H551        H  0.20454632  0.79717675  0.17388570     0.14800
H552        H  0.33306195  0.74177973  0.11789412     0.14800
C553        C  0.35393966  0.80896705  0.14698493     0.36500
C554        C  0.18289753  0.73061973  0.14417502     0.36400
N555        N  0.38887073  0.82488979  0.14628574    -0.43900
N556        N  0.14764748  0.71572389  0.14396692    -0.43900
C557        C  0.25927192  0.52794246  0.12825807    -0.00300
C558        C  0.29916761  0.50371246  0.12763450    -0.12200
C559        C  0.30500523  0.96816125  0.14483992     0.02000
C560        C  0.27046463  0.95603928  0.16352132    -0.00400
C561        C  0.22978468  0.97853922  0.16358242    -0.12100
C562        C  0.22381957  0.51435150  0.14618184     0.01800
H563        H  0.32635064  0.51243160  0.11355546     0.14800
H564        H  0.20304754  0.96911878  0.17780408     0.14800
C565        C  0.18156135  0.53697937  0.14781172     0.36500
C566        C  0.34679798  0.94454154  0.14251072     0.36400
N567        N  0.14752615  0.55485021  0.14922777    -0.43900
N568        N  0.38061431  0.92628852  0.14045047    -0.43900
C569        C  0.25622693  0.72429045  0.01504492    -0.00300
C570        C  0.29592628  0.72930178  0.99923449    -0.12200
C571        C  0.29877005  0.75764676  0.97750378     0.02000
C572        C  0.26133317  0.78250431  0.97123323    -0.00400
C573        C  0.22135831  0.77683128  0.98669614    -0.12100
C574        C  0.21838574  0.74810246  0.00832641     0.01800
H575        H  0.32507260  0.71047260  0.00359950     0.14800
H576        H  0.19225655  0.79562088  0.98221127     0.14800
C577        C  0.17613964  0.74452149  0.02324066     0.36500
C578        C  0.34036933  0.75936514  0.96180875     0.36400
N579        N  0.14216615  0.74165196  0.03505699    -0.43900
N580        N  0.37375892  0.76045009  0.94928533    -0.43900
C581        C  0.25293572  0.53454228  0.01689073    -0.00300
C582        C  0.28940418  0.50540372  0.01282603    -0.12200
C583        C  0.29244661  0.97403068  0.99254761     0.02000
C584        C  0.25892773  0.97218862  0.97522542    -0.00400
C585        C  0.22202167  0.00077410  0.97954571    -0.12100
C586        C  0.21857119  0.53156842  0.00017360     0.01800
H587        H  0.31557242  0.50660516  0.02582138     0.14800
H588        H  0.19588612  0.99950432  0.96653922     0.14800
C589        C  0.18018311  0.56058805  0.00303935     0.36500
C590        C  0.32920824  0.94279474  0.99096549     0.36400
N591        N  0.14925499  0.58362679  0.00526581    -0.43900
N592        N  0.35852655  0.91761495  0.99000242    -0.43900
O593        O  0.71995863  0.08261893  0.10413115    -0.73100
O594        O  0.71934700  0.17910060  0.04905340    -0.74000
O595        O  0.71720935  0.08346735  0.04925916    -0.62700
O596        O  0.72238366  0.18008270  0.10392270    -0.71100
O597        O  0.79537135  0.17828251  0.09855001    -0.70600
O598        O  0.79041510  0.08255268  0.04462794    -0.61900
O599        O  0.79242459  0.17748744  0.04429476    -0.74400
O600        O  0.79303185  0.08219247  0.09874021    -0.73200
Cu601      Cu  0.71707499  0.13144487  0.07690658     1.04600
Cu602      Cu  0.79521878  0.13012533  0.07152256     1.04300
C603        C  0.75698715  0.06632304  0.10970360     0.93100
C604        C  0.75579926  0.19254928  0.03739375     0.92300
C605        C  0.75328740  0.06840789  0.03795852     0.84400
C606        C  0.75990975  0.19504262  0.10961613     0.90700
C607        C  0.71576880  0.13290027  0.77392705     0.86400
C608        C  0.71721333  0.09509851  0.79425338    -0.53900
C609        C  0.75424264  0.09484278  0.80731784     0.09300
C610        C  0.78702750  0.13320267  0.79919287     0.20200
C611        C  0.72237627  0.17684403  0.78941777    -0.54600
C612        C  0.75946579  0.17694806  0.80260866     0.09400
C613        C  0.75919601  0.12826031  0.75655459    -0.54100
C614        C  0.79656806  0.12870392  0.76958607     0.10000
H615        H  0.69087670  0.07034637  0.79803490     0.14500
H616        H  0.81702711  0.13331103  0.81006348     0.00200
H617        H  0.69985934  0.20523970  0.79113821     0.14800
H618        H  0.76010432  0.12465757  0.73567645     0.14600
O619        O  0.80538870  0.33525312  0.88550318    -0.73100
O620        O  0.79869373  0.42755476  0.94253422    -0.74000
O621        O  0.80024579  0.33221475  0.94039281    -0.62700
O622        O  0.80338057  0.43231464  0.88751605    -0.71100
O623        O  0.73012062  0.43138516  0.88980974    -0.70600
O624        O  0.72718477  0.33067524  0.94174204    -0.61900
O625        O  0.72552774  0.42602795  0.94444217    -0.74400
O626        O  0.73207293  0.33448367  0.88688739    -0.73200
Cu627      Cu  0.80450838  0.38189688  0.91380976     1.04600
Cu628      Cu  0.72621525  0.38058291  0.91562384     1.04300
C629        C  0.76965689  0.31976123  0.87757920     0.93100
C630        C  0.76120733  0.44047912  0.95299423     0.92300
C631        C  0.76319338  0.31625961  0.94986133     0.84400
C632        C  0.76697340  0.44832414  0.88072368     0.90700
C633        C  0.81675046  0.38287840  0.21660871     0.86400
C634        C  0.81520913  0.34133102  0.19883519    -0.53900
C635        C  0.77973424  0.33975302  0.18431257     0.09300
C636        C  0.74772450  0.37993582  0.18946539     0.20200
C637        C  0.81277549  0.42371163  0.19822833    -0.54600
C638        C  0.77723977  0.42180864  0.18382412     0.09400
C639        C  0.77223950  0.38243841  0.23307191    -0.54100
C640        C  0.73603884  0.38078823  0.21908819     0.10000
H641        H  0.84055530  0.31528906  0.19788146     0.14500
H642        H  0.71860192  0.37903513  0.17787780     0.00200
H643        H  0.83527053  0.45213655  0.19604968     0.14800
H644        H  0.76966099  0.38277821  0.25409520     0.14600
O645        O  0.54202535  0.31610491  0.54806860    -0.73100
O646        O  0.53891806  0.41828302  0.59829886    -0.74000
O647        O  0.53843188  0.32246987  0.60276161    -0.62700
O648        O  0.54191729  0.41113387  0.54390068    -0.71100
O649        O  0.96870976  0.41291133  0.54681921    -0.70600
O650        O  0.96508094  0.32045939  0.60389945    -0.61900
O651        O  0.96569005  0.41793522  0.60187377    -0.74400
O652        O  0.96881863  0.31728256  0.54895049    -0.73200
Cu653      Cu  0.54276988  0.36700135  0.57330280     1.04600
Cu654      Cu  0.96441426  0.36714773  0.57559333     1.04300
C655        C  0.50623355  0.30129628  0.53992347     0.93100
C656        C  0.00234297  0.43486711  0.60778960     0.92300
C657        C  0.00121927  0.30665991  0.61211912     0.84400
C658        C  0.50592610  0.42582808  0.53584210     0.90700
O659        O  0.98467020  0.06699397  0.44055093    -0.73100
O660        O  0.99217143  0.16816675  0.38908505    -0.74000
O661        O  0.99442363  0.07240189  0.38578074    -0.62700
O662        O  0.98271371  0.16246638  0.44359063    -0.71100
O663        O  0.55560087  0.16449520  0.44379204    -0.70600
O664        O  0.56734264  0.07182690  0.38711350    -0.61900
O665        O  0.56527229  0.16881386  0.38860567    -0.74400
O666        O  0.55729772  0.06876717  0.44180317    -0.73200
Cu667      Cu  0.98601966  0.11744352  0.41463610     1.04600
Cu668      Cu  0.56399596  0.11856758  0.41527574     1.04300
C669        C  0.51960548  0.05225915  0.44971017     0.93100
C670        C  0.52956807  0.18475317  0.38076914     0.92300
C671        C  0.53248824  0.05739880  0.37767022     0.84400
C672        C  0.51732723  0.17749414  0.45301664     0.90700
C673        C  0.97732058  0.36982923  0.27469410     0.86400
C674        C  0.98150253  0.32852155  0.29264768    -0.53900
C675        C  0.51854661  0.32861883  0.30579092     0.09300
C676        C  0.54928546  0.36934335  0.29935678     0.20200
C677        C  0.98200072  0.41065808  0.29265627    -0.54600
C678        C  0.51971177  0.41103047  0.30540810     0.09400
C679        C  0.52045730  0.36911542  0.25688403    -0.54100
C680        C  0.55804474  0.36914152  0.26967896     0.10000
H681        H  0.95756613  0.30157060  0.29604306     0.14500
H682        H  0.58012433  0.36877341  0.30936907     0.00200
H683        H  0.95699325  0.43696924  0.29523274     0.14800
H684        H  0.52115308  0.36997086  0.23590688     0.14600
C685        C  0.55575853  0.11662294  0.71572099     0.86400
C686        C  0.55188112  0.07534911  0.69773464    -0.53900
C687        C  0.51502610  0.07569055  0.68435828     0.09300
C688        C  0.98512244  0.11722587  0.68997090     0.20200
C689        C  0.55280003  0.15733526  0.69736378    -0.54600
C690        C  0.51579720  0.15837048  0.68408019     0.09400
C691        C  0.51193789  0.11682622  0.73288757    -0.54100
C692        C  0.97499081  0.11712303  0.71954211     0.10000
H693        H  0.57617962  0.04874317  0.69442780     0.14500
H694        H  0.95494207  0.11713114  0.67934308     0.00200
H695        H  0.57836729  0.18319526  0.69500270     0.14800
H696        H  0.51046992  0.11794877  0.75387840     0.14600
C697        C  0.52968892  0.44895590  0.32304481    -0.00300
C698        C  0.51846635  0.49340293  0.31593411    -0.12200
C699        C  0.52096613  0.02962555  0.33312068     0.02000
C700        C  0.53571224  0.02198746  0.35773120    -0.00400
C701        C  0.55001745  0.47870116  0.36427286    -0.12100
C702        C  0.54702470  0.44206743  0.34730779     0.01800
H703        H  0.00670923  0.99967480  0.29713467     0.14800
H704        H  0.56153164  0.47300940  0.38328169     0.14800
C705        C  0.55969966  0.39794061  0.35627853     0.36500
C706        C  0.00837566  0.07439647  0.32507942     0.36400
N707        N  0.57060512  0.36311027  0.36392823    -0.43900
N708        N  0.99853979  0.11037771  0.31862852    -0.43900
C709        C  0.53039256  0.22347836  0.36244038    -0.00300
C710        C  0.99468065  0.25384449  0.36476972    -0.12200
C711        C  0.99146443  0.28936997  0.34719360     0.02000
C712        C  0.52436019  0.29502141  0.32653390    -0.00400
C713        C  0.56111594  0.26610225  0.32465388    -0.12100
C714        C  0.56432680  0.23026519  0.34236866     0.01800
H715        H  0.96889831  0.24965528  0.38040535     0.14800
H716        H  0.58630905  0.27034217  0.30871803     0.14800
C717        C  0.60114957  0.19941950  0.33847493     0.39700
C718        C  0.95408378  0.31968092  0.35093959     0.36400
N719        N  0.63059889  0.17459626  0.33526269    -0.43900
N720        N  0.92407088  0.34383079  0.35396768    -0.43900
C721        C  0.50780120  0.45723211  0.51329999    -0.00300
C722        C  0.54726260  0.95952202  0.49704030    -0.12200
C723        C  0.55154088  0.98896163  0.47574772     0.02000
C724        C  0.51594520  0.01738337  0.47045448    -0.00400
C725        C  0.47602374  0.51420471  0.48624165    -0.12100
C726        C  0.47168111  0.48468731  0.50750062     0.01800
H727        H  0.57497015  0.93798902  0.50080466     0.14800
H728        H  0.44843347  0.53593062  0.48250217     0.14800
C729        C  0.43020793  0.48482976  0.52334347     0.36500
C730        C  0.59250126  0.98832058  0.45942211     0.36400
N731        N  0.39684921  0.48516584  0.53591141    -0.43900
N732        N  0.62532608  0.98764571  0.44635009    -0.43900
C733        C  0.51338159  0.20912798  0.47527069    -0.00300
C734        C  0.54633442  0.20840205  0.49271149    -0.12200
C735        C  0.54411588  0.23691889  0.51431263     0.02000
C736        C  0.50821652  0.26723612  0.51884980    -0.00400
C737        C  0.97519165  0.26803097  0.50130459    -0.12100
C738        C  0.47733380  0.23918934  0.47987691     0.01800
H739        H  0.57385681  0.18503636  0.48962864     0.14800
H740        H  0.94818176  0.29207598  0.50405625     0.14800
C741        C  0.94450270  0.24471071  0.46138230     0.36500
C742        C  0.57878847  0.23348971  0.53166289     0.36400
N743        N  0.91800548  0.24896369  0.44676652    -0.43900
N744        N  0.60667910  0.23060364  0.54547988    -0.43900
C745        C  0.50316845  0.47386740  0.62590839    -0.00300
C746        C  0.96890212  0.47930595  0.64563719    -0.12200
C747        C  0.97120033  0.01333604  0.66458081     0.02000
C748        C  0.50855405  0.04187488  0.66392025    -0.00400
C749        C  0.54163028  0.03785230  0.64354524    -0.12100
C750        C  0.53894736  0.00491104  0.62442931     0.01800
H751        H  0.94092348  0.45627656  0.64681259     0.14800
H752        H  0.56964067  0.06088346  0.64250501     0.14800
C753        C  0.57288632  0.50476323  0.60312382     0.36500
C754        C  0.93588385  0.01692060  0.68491018     0.36400
N755        N  0.59989987  0.50493763  0.58598181    -0.43900
N756        N  0.90740878  0.01976184  0.70112279    -0.43900
C757        C  0.50724031  0.19661124  0.66618122    -0.00300
C758        C  0.01870348  0.24101378  0.67327518    -0.12200
C759        C  0.01598743  0.27763835  0.65621348     0.02000
C760        C  0.50046126  0.27052026  0.63179560    -0.00400
C761        C  0.48681153  0.22705085  0.62504812    -0.12100
C762        C  0.49048154  0.19003788  0.64177677     0.01800
H763        H  0.03055998  0.24708861  0.69212054     0.14800
H764        H  0.47514528  0.22163310  0.60606846     0.14800
C765        C  0.47935993  0.14581734  0.63235445     0.36500
C766        C  0.02916501  0.32222944  0.66419346     0.36400
N767        N  0.46991635  0.11090797  0.62423194    -0.43900
N768        N  0.03962619  0.35798166  0.67060757    -0.43900
C769        C  0.68996628  0.37940937  0.23162577    -0.00300
C770        C  0.66123169  0.34510329  0.22465388    -0.12200
C771        C  0.61818642  0.34126601  0.23654211     0.02000
C772        C  0.60324141  0.37189654  0.25623989    -0.00400
C773        C  0.63189768  0.40625521  0.26333681    -0.12100
C774        C  0.67467985  0.41060777  0.25103418     0.01800
H775        H  0.67274675  0.32029208  0.21044311     0.14800
H776        H  0.62046834  0.43039028  0.27818638     0.14800
C777        C  0.70155873  0.44839176  0.25797871     0.36500
C778        C  0.59067594  0.30455034  0.22882140     0.36400
N779        N  0.72308667  0.47875777  0.26345001    -0.43900
N780        N  0.56862966  0.27520179  0.22252597    -0.43900
C781        C  0.85726586  0.38112730  0.23265536    -0.00300
C782        C  0.89085735  0.41443189  0.23021340    -0.12200
C783        C  0.92910786  0.41096456  0.24345355     0.02000
C784        C  0.93541873  0.37341110  0.25992253    -0.00400
C785        C  0.90147394  0.34056205  0.26269226    -0.12100
C786        C  0.86319376  0.34410797  0.24954165     0.01800
H787        H  0.88859245  0.44358957  0.21786281     0.14800
H788        H  0.90368769  0.31137767  0.27501270     0.14800
C789        C  0.83067362  0.30831778  0.25359358     0.36500
C790        C  0.96140318  0.44704798  0.23970527     0.36400
N791        N  0.80466244  0.27966410  0.25680358    -0.43900
N792        N  0.98716211  0.47600046  0.23678898    -0.43900
C793        C  0.67423019  0.12885169  0.75890726    -0.00300
C794        C  0.64176874  0.16311129  0.75974176    -0.12200
C795        C  0.60337352  0.15872695  0.74675828     0.02000
C796        C  0.59646327  0.11985814  0.73149601    -0.00400
C797        C  0.62828675  0.08503406  0.73123332    -0.12100
C798        C  0.66635580  0.08908093  0.74458043     0.01800
H799        H  0.64503408  0.19369665  0.77071511     0.14800
H800        H  0.62404322  0.05376011  0.72102229     0.14800
C801        C  0.69650026  0.05101354  0.74350515     0.36500
C802        C  0.57128336  0.19498959  0.74978630     0.36400
N803        N  0.72049808  0.02045656  0.74279537    -0.43900
N804        N  0.54553140  0.22391508  0.75232045    -0.43900
C805        C  0.84208714  0.12614622  0.75632316    -0.00300
C806        C  0.87255493  0.09595822  0.76587301    -0.12200
C807        C  0.91537357  0.09141548  0.75383722     0.02000
C808        C  0.92925254  0.11898832  0.73233183    -0.00400
C809        C  0.89893458  0.14937014  0.72276076    -0.12100
C810        C  0.85571030  0.15306852  0.73442483     0.01800
H811        H  0.86277002  0.07510418  0.78245550     0.14800
H812        H  0.90927202  0.17097147  0.70636808     0.14800
C813        C  0.82677748  0.18613955  0.72411333     0.36500
C814        C  0.94339419  0.05636171  0.76306991     0.36400
N815        N  0.80357509  0.21252351  0.71574111    -0.43900
N816        N  0.96576181  0.02807195  0.77032592    -0.43900
C817        C  0.77161210  0.28329325  0.85813059    -0.00300
C818        C  0.77030767  0.29441918  0.83191195    -0.12200
C819        C  0.76870548  0.26023860  0.81322671     0.02000
C820        C  0.76847569  0.21404433  0.82079883    -0.00400
C821        C  0.77181514  0.20307899  0.84691307    -0.12100
C822        C  0.77298739  0.23726673  0.86559655     0.01800
H823        H  0.76967693  0.32982257  0.82611601     0.14800
H824        H  0.77121457  0.16775106  0.85292050     0.14800
C825        C  0.77350160  0.22437303  0.89247238     0.36500
C826        C  0.76722662  0.27337448  0.78644810     0.36400
N827        N  0.77365342  0.21400165  0.91401763    -0.43900
N828        N  0.76598841  0.28395764  0.76499971    -0.43900
C829        C  0.76043107  0.06071820  0.82781380    -0.00300
C830        C  0.79531467  0.02960045  0.82436708    -0.12200
C831        C  0.79897908  0.49332482  0.84166146     0.02000
C832        C  0.76677662  0.48746023  0.86270990    -0.00400
C833        C  0.73254906  0.51942561  0.86651667    -0.12100
C834        C  0.72927923  0.05588224  0.84941117     0.01800
H835        H  0.81843709  0.03209457  0.80749400     0.14800
H836        H  0.70810363  0.51584412  0.88290092     0.14800
C837        C  0.69380285  0.08808506  0.85452574     0.36500
C838        C  0.83462327  0.46137023  0.83644579     0.36400
N839        N  0.66542948  0.11393483  0.85864357    -0.43900
N840        N  0.86325353  0.43584640  0.83222496    -0.43900
C841        C  0.77457468  0.30404741  0.16433045    -0.00300
C842        C  0.73278405  0.28491310  0.16192585    -0.12200
C843        C  0.72680501  0.24936340  0.14459270     0.02000
C844        C  0.76329190  0.23259066  0.12863392    -0.00400
C845        C  0.80480047  0.25307051  0.13036370    -0.12100
C846        C  0.81067920  0.28843611  0.14768081     0.01800
H847        H  0.70456797  0.29713385  0.17386985     0.14800
H848        H  0.83309983  0.24182312  0.11785889     0.14800
C849        C  0.85394693  0.30902369  0.14694924     0.36500
C850        C  0.68295370  0.23054857  0.14416807     0.36400
N851        N  0.88887237  0.32495965  0.14625007    -0.43900
N852        N  0.64771465  0.21562112  0.14396988    -0.43900
C853        C  0.75935380  0.02792985  0.12825973    -0.00300
C854        C  0.79923517  0.00367197  0.12762492    -0.12200
C855        C  0.80493908  0.46819264  0.14484430     0.02000
C856        C  0.77038476  0.45603672  0.16350900    -0.00400
C857        C  0.72968719  0.47849646  0.16355275    -0.12100
C858        C  0.72391930  0.01438414  0.14620745     0.01800
H859        H  0.82640597  0.01236346  0.11353154     0.14800
H860        H  0.70293707  0.46904173  0.17775783     0.14800
C861        C  0.68168890  0.03706806  0.14786525     0.36500
C862        C  0.84674590  0.44459774  0.14252469     0.36400
N863        N  0.64767715  0.05498697  0.14930655    -0.43900
N864        N  0.88057182  0.42636271  0.14047372    -0.43900
C865        C  0.75634045  0.22429010  0.01504695    -0.00300
C866        C  0.79604022  0.22929977  0.99923625    -0.12200
C867        C  0.79888827  0.25765911  0.97751161     0.02000
C868        C  0.76145085  0.28251830  0.97124372    -0.00400
C869        C  0.72147983  0.27685556  0.98671095    -0.12100
C870        C  0.71850742  0.24812680  0.00833995     0.01800
H871        H  0.82518331  0.21046212  0.00359767     0.14800
H872        H  0.69238229  0.29565807  0.98223251     0.14800
C873        C  0.67627345  0.24458403  0.02327027     0.36500
C874        C  0.84049433  0.25939794  0.96182357     0.36400
N875        N  0.64231066  0.24175048  0.03510134    -0.43900
N876        N  0.87389118  0.26050268  0.94930801    -0.43900
C877        C  0.75299649  0.03455096  0.01686116    -0.00300
C878        C  0.78942563  0.00536190  0.01280266    -0.12200
C879        C  0.79245959  0.47407388  0.99257526     0.02000
C880        C  0.75893719  0.47218113  0.97525807    -0.00400
C881        C  0.72198277  0.50069941  0.97959108    -0.12100
C882        C  0.71864298  0.03164123  0.00013243     0.01800
H883        H  0.81558729  0.00652303  0.02580363     0.14800
H884        H  0.69583607  0.49938008  0.96659370     0.14800
C885        C  0.68031308  0.06074404  0.00297985     0.36500
C886        C  0.82925794  0.44288362  0.99099178     0.36400
N887        N  0.64943486  0.08385440  0.00519116    -0.43900
N888        N  0.85860324  0.41773710  0.99002892    -0.43900
O889        O  0.71988415  0.58265017  0.10416927    -0.73100
O890        O  0.71928900  0.67910115  0.04908636    -0.74000
O891        O  0.71716749  0.58346421  0.04930460    -0.62700
O892        O  0.72232435  0.68011511  0.10396425    -0.71100
O893        O  0.79531007  0.67831260  0.09858779    -0.70600
O894        O  0.79037251  0.58255732  0.04468185    -0.61900
O895        O  0.79236459  0.67749459  0.04432369    -0.74400
O896        O  0.79295744  0.58222587  0.09878845    -0.73200
Cu897      Cu  0.71701702  0.63146300  0.07694620     1.04600
Cu898      Cu  0.79515927  0.63014688  0.07156566     1.04300
C899        C  0.75690753  0.56634697  0.10974080     0.93100
C900        C  0.75573548  0.69253864  0.03741602     0.92300
C901        C  0.75325101  0.56839645  0.03801311     0.84400
C902        C  0.75985257  0.69507338  0.10965803     0.90700
C903        C  0.71578056  0.63285146  0.77393024     0.86400
C904        C  0.71721695  0.59508105  0.79427763    -0.53900
C905        C  0.75425658  0.59483278  0.80733214     0.09300
C906        C  0.78705242  0.63316642  0.79918510     0.20200
C907        C  0.72241145  0.67681478  0.78939883    -0.54600
C908        C  0.75950676  0.67692287  0.80258540     0.09400
C909        C  0.75920352  0.62817225  0.75655452    -0.54100
C910        C  0.79658135  0.62862007  0.76958159     0.10000
H911        H  0.69087237  0.57034408  0.79807907     0.14500
H912        H  0.81705705  0.63327781  0.81005143     0.00200
H913        H  0.69989651  0.70521237  0.79111653     0.14800
H914        H  0.76010684  0.62454891  0.73567747     0.14600
O915        O  0.80534291  0.83520076  0.88550044    -0.73100
O916        O  0.79862278  0.92752301  0.94250546    -0.74000
O917        O  0.80016266  0.83217773  0.94039000    -0.62700
O918        O  0.80332966  0.93226123  0.88749101    -0.71100
O919        O  0.73007218  0.93132710  0.88977705    -0.70600
O920        O  0.72710438  0.83063219  0.94173071    -0.61900
O921        O  0.72545634  0.92600333  0.94441472    -0.74400
O922        O  0.73202803  0.83442440  0.88687137    -0.73200
Cu923      Cu  0.80444394  0.88185239  0.91379606     1.04600
Cu924      Cu  0.72615262  0.88053636  0.91560202     1.04300
C925        C  0.76961855  0.81970581  0.87757069     0.93100
C926        C  0.76113939  0.94045946  0.95296136     0.92300
C927        C  0.76310963  0.81621532  0.94985468     0.84400
C928        C  0.76692540  0.94826840  0.88069181     0.90700
C929        C  0.81679947  0.88289656  0.21665431     0.86400
C930        C  0.81521394  0.84132614  0.19890033    -0.53900
C931        C  0.77975180  0.83977836  0.18436369     0.09300
C932        C  0.74779319  0.88001185  0.18949052     0.20200
C933        C  0.81290134  0.92370594  0.19823852    -0.54600
C934        C  0.77735814  0.92184221  0.18383617     0.09400
C935        C  0.77227623  0.88253528  0.23310440    -0.54100
C936        C  0.73608864  0.88091432  0.21910943     0.10000
H937        H  0.84052295  0.81524777  0.19796947     0.14500
H938        H  0.71867699  0.87913665  0.17789724     0.00200
H939        H  0.83546231  0.95207209  0.19602580     0.14800
H940        H  0.76968001  0.88288631  0.25412777     0.14600
O941        O  0.54205143  0.81609849  0.54812854    -0.73100
O942        O  0.53891286  0.91827019  0.59836473    -0.74000
O943        O  0.53841964  0.82245947  0.60282620    -0.62700
O944        O  0.54195571  0.91112675  0.54397273    -0.71100
O945        O  0.96891908  0.91286958  0.54685720    -0.70600
O946        O  0.96520958  0.82055445  0.60402759    -0.61900
O947        O  0.96571637  0.91804086  0.60191933    -0.74400
O948        O  0.96911414  0.81723141  0.54909279    -0.73200
Cu949      Cu  0.54278051  0.86699086  0.57336975     1.04600
Cu950      Cu  0.96458099  0.86717486  0.57568005     1.04300
C951        C  0.50626688  0.80127270  0.53998189     0.93100
C952        C  0.00233359  0.93498066  0.60788629     0.92300
C953        C  0.00133952  0.80672776  0.61224649     0.84400
C954        C  0.50597709  0.92581266  0.53589480     0.90700
O955        O  0.98431991  0.56690176  0.44048399    -0.73100
O956        O  0.99216285  0.66824624  0.38914593    -0.74000
O957        O  0.99429244  0.57248876  0.38571740    -0.62700
O958        O  0.98252781  0.66232014  0.44366278    -0.71100
O959        O  0.55550817  0.66449040  0.44380122    -0.70600
O960        O  0.56726967  0.57187062  0.38709432    -0.61900
O961        O  0.56525216  0.66884795  0.38861598    -0.74400
O962        O  0.55716254  0.56876130  0.44177740    -0.73200
Cu963      Cu  0.98585146  0.61743286  0.41463157     1.04600
Cu964      Cu  0.56391415  0.61858414  0.41527083     1.04300
C965        C  0.51946007  0.55225456  0.44966319     0.93100
C966        C  0.52956540  0.68481644  0.38077421     0.92300
C967        C  0.53242259  0.55747119  0.37763098     0.84400
C968        C  0.51723591  0.67748274  0.45303476     0.90700
C969        C  0.97732675  0.86976955  0.27478901     0.86400
C970        C  0.98157396  0.82841897  0.29270461    -0.53900
C971        C  0.51863439  0.82860969  0.30575787     0.09300
C972        C  0.54933981  0.86936403  0.29933941     0.20200
C973        C  0.98199711  0.91054606  0.29278692    -0.54600
C974        C  0.51973792  0.91101732  0.30541800     0.09400
C975        C  0.52048906  0.86917650  0.25687323    -0.54100
C976        C  0.55808267  0.86921768  0.26966146     0.10000
H977        H  0.95762765  0.80147821  0.29611560     0.14500
H978        H  0.58018630  0.86880016  0.30934415     0.00200
H979        H  0.95696943  0.93683102  0.29540198     0.14800
H980        H  0.52117434  0.87005911  0.23589677     0.14600
C981        C  0.55575588  0.61655599  0.71573137     0.86400
C982        C  0.55186502  0.57526818  0.69775581    -0.53900
C983        C  0.51501462  0.57561370  0.68437290     0.09300
C984        C  0.98515633  0.61705713  0.68994854     0.20200
C985        C  0.55282033  0.65725172  0.69736138    -0.54600
C986        C  0.51581771  0.65829674  0.68407918     0.09400
C987        C  0.51193143  0.61679299  0.73289355    -0.54100
C988        C  0.97499918  0.61694284  0.71952115     0.10000
H989        H  0.57616107  0.54865754  0.69445591     0.14500
H990        H  0.95498707  0.61698188  0.67931072     0.00200
H991        H  0.57839505  0.68310360  0.69499731     0.14800
H992        H  0.51045771  0.61793089  0.75388430     0.14600
C993        C  0.52971120  0.94892481  0.32306602    -0.00300
C994        C  0.51846339  0.99337283  0.31597390    -0.12200
C995        C  0.52094835  0.52966985  0.33307492     0.02000
C996        C  0.53565703  0.52204813  0.35769668    -0.00400
C997        C  0.55009353  0.97863996  0.36428972    -0.12100
C998        C  0.54708936  0.94202036  0.34731621     0.01800
H999        H  0.00671706  0.49980714  0.29705036     0.14800
H1000       H  0.56163840  0.97293734  0.38328971     0.14800
C1001       C  0.55981009  0.89789329  0.35626366     0.36500
C1002       C  0.00836717  0.57451148  0.32502783     0.36400
N1003       N  0.57075781  0.86306431  0.36389388    -0.43900
N1004       N  0.99857655  0.61051650  0.31859250    -0.43900
C1005       C  0.53043229  0.72353516  0.36244336    -0.00300
C1006       C  0.99491212  0.75399988  0.36490690    -0.12200
C1007       C  0.99171286  0.78948989  0.34730721     0.02000
C1008       C  0.52444339  0.79503776  0.32651174    -0.00400
C1009       C  0.56115847  0.76606501  0.32462354    -0.12100
C1010       C  0.56434400  0.73024209  0.34234967     0.01800
H1011       H  0.96919554  0.74993055  0.38059008     0.14800
H1012       H  0.58633005  0.77024649  0.30867094     0.14800
C1013       C  0.60109908  0.69931495  0.33843941     0.39700
C1014       C  0.95446978  0.81996541  0.35110423     0.36400
N1015       N  0.63048921  0.67442167  0.33521300    -0.43900
N1016       N  0.92457602  0.84425919  0.35417936    -0.43900
C1017       C  0.50788626  0.95722584  0.51335385    -0.00300
C1018       C  0.54708361  0.45936927  0.49689691    -0.12200
C1019       C  0.55132069  0.48879495  0.47559725     0.02000
C1020       C  0.51578637  0.51736367  0.47039367    -0.00400
C1021       C  0.47610017  0.01407064  0.48621711    -0.12100
C1022       C  0.47171901  0.98454078  0.50746948     0.01800
H1023       H  0.57474182  0.43771993  0.50059572     0.14800
H1024       H  0.44845819  0.03567736  0.48241258     0.14800
C1025       C  0.43014060  0.98451633  0.52321015     0.36500
C1026       C  0.59216162  0.48798887  0.45916430     0.36400
N1027       N  0.39669605  0.98472118  0.53569407    -0.43900
N1028       N  0.62488400  0.48718862  0.44600081    -0.43900
C1029       C  0.51329896  0.70908919  0.47531287    -0.00300
C1030       C  0.54648714  0.70863774  0.49260754    -0.12200
C1031       C  0.54432723  0.73714918  0.51421117     0.02000
C1032       C  0.50824903  0.76720372  0.51890329    -0.00400
C1033       C  0.97450786  0.76669061  0.50209708    -0.12100
C1034       C  0.47705543  0.73886051  0.48008803     0.01800
H1035       H  0.57416400  0.68549193  0.48940857     0.14800
H1036       H  0.94677862  0.78974954  0.50534699     0.14800
C1037       C  0.94207718  0.74180487  0.46304858     0.36500
C1038       C  0.57926480  0.73398158  0.53139739     0.36400
N1039       N  0.91436299  0.74488688  0.44912606    -0.43900
N1040       N  0.60736925  0.73130133  0.54508101    -0.43900
C1041       C  0.50315188  0.97389724  0.62593296    -0.00300
C1042       C  0.96887649  0.97941053  0.64572885    -0.12200
C1043       C  0.97121488  0.51321573  0.66450064     0.02000
C1044       C  0.50855529  0.54180693  0.66392479    -0.00400
C1045       C  0.54166212  0.53777076  0.64356733    -0.12100
C1046       C  0.53898736  0.50485248  0.62443723     0.01800
H1047       H  0.94094786  0.95631563  0.64694446     0.14800
H1048       H  0.56968903  0.56077939  0.64254941     0.14800
C1049       C  0.57281415  0.00481957  0.60309832     0.36500
C1050       C  0.93583644  0.51684706  0.68478981     0.36400
N1051       N  0.59980128  0.00498895  0.58594220    -0.43900
N1052       N  0.90731166  0.51972368  0.70097003    -0.43900
C1053       C  0.50725371  0.69655757  0.66619760    -0.00300
C1054       C  0.01881061  0.74087483  0.67334165    -0.12200
C1055       C  0.01612847  0.77755244  0.65631268     0.02000
C1056       C  0.50043324  0.77051187  0.63185067    -0.00400
C1057       C  0.48678305  0.72705042  0.62508772    -0.12100
C1058       C  0.49048466  0.69001308  0.64179465     0.01800
H1059       H  0.03068451  0.74688386  0.69218916     0.14800
H1060       H  0.47510838  0.72165588  0.60610799     0.14800
C1061       C  0.47941233  0.64579584  0.63234659     0.36500
C1062       C  0.02939585  0.82209214  0.66432616     0.36400
N1063       N  0.47001983  0.61088701  0.62420212    -0.43900
N1064       N  0.03993899  0.85779638  0.67077349    -0.43900
C1065       C  0.69000794  0.87954730  0.23163004    -0.00300
C1066       C  0.66128703  0.84523784  0.22464904    -0.12200
C1067       C  0.61823220  0.84139970  0.23651842     0.02000
C1068       C  0.60327104  0.87201783  0.25621826    -0.00400
C1069       C  0.63190982  0.90638962  0.26332119    -0.12100
C1070       C  0.67469834  0.91075386  0.25102789     0.01800
H1071       H  0.67282200  0.82042142  0.21044520     0.14800
H1072       H  0.62046369  0.93052056  0.27816929     0.14800
C1073       C  0.70156113  0.94855252  0.25796976     0.36500
C1074       C  0.59072512  0.80470184  0.22877147     0.36400
N1075       N  0.72307530  0.97893233  0.26343659    -0.43900
N1076       N  0.56867956  0.77537280  0.22245057    -0.43900
C1077       C  0.85728797  0.88111877  0.23272947    -0.00300
C1078       C  0.89083543  0.91447122  0.23035453    -0.12200
C1079       C  0.92906454  0.91099657  0.24361338     0.02000
C1080       C  0.93540673  0.87338133  0.26003297    -0.00400
C1081       C  0.90148627  0.84050350  0.26276160    -0.12100
C1082       C  0.86321131  0.84406924  0.24960034     0.01800
H1083       H  0.88853198  0.94369738  0.21806039     0.14800
H1084       H  0.90372486  0.81128782  0.27505823     0.14800
C1085       C  0.83068840  0.80827808  0.25363077     0.36500
C1086       C  0.96129395  0.94715677  0.23995206     0.36400
N1087       N  0.80467834  0.77962032  0.25682667    -0.43900
N1088       N  0.98699895  0.97617291  0.23711848    -0.43900
C1089       C  0.67423231  0.62879544  0.75891711    -0.00300
C1090       C  0.64179218  0.66307545  0.75972927    -0.12200
C1091       C  0.60339258  0.65868795  0.74674891     0.02000
C1092       C  0.59645791  0.61979470  0.73151005    -0.00400
C1093       C  0.62825718  0.58495058  0.73127190    -0.12100
C1094       C  0.66632987  0.58900138  0.74461664     0.01800
H1095       H  0.64508121  0.69368304  0.77067967     0.14800
H1096       H  0.62398902  0.55365862  0.72108219     0.14800
C1097       C  0.69644960  0.55091487  0.74356661     0.36500
C1098       C  0.57132914  0.69497902  0.74975034     0.36400
N1099       N  0.72042765  0.52034240  0.74287816    -0.43900
N1100       N  0.54560131  0.72393044  0.75226098    -0.43900
C1101       C  0.84209823  0.62603210  0.75631603    -0.00300
C1102       C  0.87255375  0.59582733  0.76586301    -0.12200
C1103       C  0.91537086  0.59126737  0.75382516     0.02000
C1104       C  0.92925460  0.61881952  0.73230951    -0.00400
C1105       C  0.89894764  0.64922153  0.72274430    -0.12100
C1106       C  0.85573403  0.65295912  0.73442274     0.01800
H1107       H  0.86276502  0.57498661  0.78245199     0.14800
H1108       H  0.90929233  0.67082323  0.70635305     0.14800
C1109       C  0.82683405  0.68610258  0.72414859     0.36500
C1110       C  0.94339730  0.55624182  0.76308246     0.36400
N1111       N  0.80365850  0.71255612  0.71581549    -0.43900
N1112       N  0.96577518  0.52798487  0.77036466    -0.43900
C1113       C  0.77159538  0.78324647  0.85811933    -0.00300
C1114       C  0.77028929  0.79438280  0.83190267    -0.12200
C1115       C  0.76871991  0.76020960  0.81321190     0.02000
C1116       C  0.76851311  0.71401382  0.82077790    -0.00400
C1117       C  0.77186698  0.70303948  0.84688999    -0.12100
C1118       C  0.77301996  0.73722018  0.86557824     0.01800
H1119       H  0.76963692  0.82978790  0.82611227     0.14800
H1120       H  0.77129519  0.66770920  0.85289220     0.14800
C1121       C  0.77357511  0.72431965  0.89245089     0.36500
C1122       C  0.76725785  0.77335493  0.78643381     0.36400
N1123       N  0.77376519  0.71394601  0.91399386    -0.43900
N1124       N  0.76603746  0.78394922  0.76498600    -0.43900
C1125       C  0.76046436  0.56072762  0.82783060    -0.00300
C1126       C  0.79526859  0.52952703  0.82433831    -0.12200
C1127       C  0.79901376  0.99337835  0.84168081     0.02000
C1128       C  0.76672746  0.98741278  0.86267793    -0.00400
C1129       C  0.73242004  0.01929875  0.86644042    -0.12100
C1130       C  0.72940323  0.55599545  0.84947847     0.01800
H1131       H  0.81831201  0.53194403  0.80742442     0.14800
H1132       H  0.70790676  0.01564780  0.88278518     0.14800
C1133       C  0.69401828  0.58828875  0.85463442     0.36500
C1134       C  0.83474525  0.96151152  0.83650520     0.36400
N1135       N  0.66572013  0.61421174  0.85879001    -0.43900
N1136       N  0.86344578  0.93605933  0.83231458    -0.43900
C1137       C  0.77457149  0.80406491  0.16438464    -0.00300
C1138       C  0.73275230  0.78502710  0.16193265    -0.12200
C1139       C  0.72675267  0.74948372  0.14459665     0.02000
C1140       C  0.76324988  0.73261577  0.12868224    -0.00400
C1141       C  0.80479074  0.75300062  0.13045889    -0.12100
C1142       C  0.81068718  0.78836571  0.14777375     0.01800
H1143       H  0.70452195  0.79732819  0.17383554     0.14800
H1144       H  0.83310451  0.74168534  0.11798834     0.14800
C1145       C  0.85398468  0.80888129  0.14706956     0.36500
C1146       C  0.68286389  0.73078795  0.14411424     0.36400
N1147       N  0.88892769  0.82477114  0.14639601    -0.43900
N1148       N  0.64759437  0.71595702  0.14386878    -0.43900
C1149       C  0.75926023  0.52792845  0.12827813    -0.00300
C1150       C  0.79917661  0.50374101  0.12767923    -0.12200
C1151       C  0.80500933  0.96814758  0.14480822     0.02000
C1152       C  0.77050263  0.95608272  0.16352332    -0.00400
C1153       C  0.72984131  0.97862772  0.16361153    -0.12100
C1154       C  0.72377423  0.51427221  0.14616140     0.01800
H1155       H  0.82638793  0.51250823  0.11362993     0.14800
H1156       H  0.70312831  0.96925116  0.17785924     0.14800
C1157       C  0.68149029  0.53684703  0.14776121     0.36500
C1158       C  0.84676699  0.94446568  0.14244775     0.36400
N1159       N  0.64743343  0.55467344  0.14915451    -0.43900
N1160       N  0.88055182  0.92615379  0.14035731    -0.43900
C1161       C  0.75626186  0.72424768  0.01505151    -0.00300
C1162       C  0.79598765  0.72934047  0.99927487    -0.12200
C1163       C  0.79882866  0.75767684  0.97753955     0.02000
C1164       C  0.76136596  0.78246010  0.97123523    -0.00400
C1165       C  0.72136410  0.77669477  0.98666000    -0.12100
C1166       C  0.71838976  0.74795824  0.00828754     0.01800
H1167       H  0.82515832  0.71058056  0.00366903     0.14800
H1168       H  0.69223639  0.79540956  0.98214420     0.14800
C1169       C  0.67609904  0.74424399  0.02314220     0.36500
C1170       C  0.84045384  0.75945666  0.96187276     0.36400
N1171       N  0.64208973  0.74125957  0.03490899    -0.43900
N1172       N  0.87386331  0.76058656  0.94937064    -0.43900
C1173       C  0.75297898  0.53452140  0.01692206    -0.00300
C1174       C  0.78944614  0.50538145  0.01284984    -0.12200
C1175       C  0.79240859  0.97404263  0.99253539     0.02000
C1176       C  0.75888902  0.97217941  0.97521510    -0.00400
C1177       C  0.72197666  0.00075906  0.97952853    -0.12100
C1178       C  0.71861199  0.53155719  0.00020597     0.01800
H1179       H  0.81561566  0.50657308  0.02584462     0.14800
H1180       H  0.69584123  0.99947280  0.96652258     0.14800
C1181       C  0.68021910  0.56056881  0.00308158     0.36500
C1182       C  0.82917669  0.94281496  0.99096040     0.36400
N1183       N  0.64928636  0.58360006  0.00531660    -0.43900
N1184       N  0.85849985  0.91764151  0.99000207    -0.43900
loop_ 
_geom_bond_atom_site_label_1 
_geom_bond_atom_site_label_2 
_geom_bond_distance 
_geom_bond_site_symmetry_2 
_ccdc_geom_bond_type 
O1           Cu9   2.018       .  S
O1           C11   1.278       .  A
O2           Cu9   2.007       .  S
O2           C12   1.278       .  A
O3           Cu9   2.015       .  S
O3           C13   1.279       .  A
O4           Cu9   2.022       .  S
O4           C14   1.279       .  A
O5          Cu10   1.997       .  S
O5           C14   1.277       .  A
O6          Cu10   1.994       .  S
O6           C13   1.277       .  A
O7          Cu10   1.988       .  S
O7           C12   1.276       .  A
O8          Cu10   1.990       .  S
O8           C11   1.278       .  A
Cu9         Cu10   2.366       .  S
C11         C261   1.488       .  S
C12         C273   1.485       .  S
C13         C285   1.483       .  S
C14         C252   1.493       .  S
C15          C16   1.534       .  S
C15          C21   1.539       .  S
C15          C19   1.547       .  S
C15         C201   1.542       .  S
C16          H23   1.087       .  S
C16          C17   1.361       .  D
C17          C18   1.539       .  S
C17         C237   1.484       .  S
C18          C22   1.544       .  S
C18          C20   1.540       .  S
C18          H24   1.111       .  S
C19          H25   1.080       .  S
C19          C20   1.366       .  D
C20         C228   1.485       .  S
C21          H26   1.086       .  S
C21          C22   1.369       .  D
C22         C213   1.493       .  S
O27         Cu35   2.012       .  S
O27          C37   1.277       .  A
O28         Cu35   2.006       .  S
O28          C38   1.278       .  A
O29         Cu35   2.003       .  S
O29          C39   1.278       .  A
O30         Cu35   2.015       .  S
O30          C40   1.278       .  A
O31         Cu36   2.001       .  S
O31          C40   1.277       .  A
O32         Cu36   1.997       .  S
O32          C39   1.277       .  A
O33         Cu36   2.008       .  S
O33          C38   1.278       .  A
O34         Cu36   2.015       .  S
O34          C37   1.278       .  A
Cu35        Cu36   2.372       .  S
C37         C225   1.473       .  S
C38         C288   1.484       .  S
C39         C276   1.484       .  S
C40         C240   1.481       .  S
C41          C42   1.537       .  S
C41          C47   1.537       .  S
C41          C45   1.543       .  S
C41         C189   1.543       .  S
C42          H49   1.086       .  S
C42          C43   1.366       .  D
C43          C44   1.542       .  S
C43         C249   1.496       .  S
C44          C48   1.547       .  S
C44          C46   1.537       .  S
C44          H50   1.111       .  S
C45          H51   1.080       .  S
C45          C46   1.364       .  D
C46         C264   1.483       .  S
C47          H52   1.086       .  S
C47          C48   1.368       .  D
C48         C177   1.493       .  S
O53         Cu61   1.994       .  S
O53          C63   1.276       .  A
O54         Cu61   1.990       .  S
O54         C656   1.276       .  A
O55         Cu61   2.005       .  S
O55         C657   1.277       .  A
O56         Cu61   2.002       .  S
O56          C66   1.278       .  A
O57         Cu62   2.003       .  S
O57         C658   1.277       .  A
O58         Cu62   2.009       .  S
O58          C65   1.277       .  A
O59         Cu62   2.029       .  S
O59          C64   1.280       .  A
O60         Cu62   2.016       .  S
O60         C655   1.280       .  A
Cu61       Cu654   2.371   1_455  S
Cu62       Cu653   2.370       .  S
C63         O652   1.280   1_455  A
C63         C144   1.482       .  S
C64         O646   1.276       .  A
C64         C745   1.486       .  S
C65         O647   1.277       .  A
C65         C760   1.470       .  S
C66         O649   1.277   1_455  A
C66         C129   1.485       .  S
O67         Cu75   1.998       .  S
O67         C669   1.277       .  A
O68         Cu75   1.991       .  S
O68         C670   1.277       .  A
O69         Cu75   2.003       .  S
O69         C671   1.277       .  A
O70         Cu75   2.002       .  S
O70         C672   1.277       .  A
O71         Cu76   2.007       .  S
O71          C80   1.279       .  A
O72         Cu76   2.006       .  S
O72          C79   1.276       .  A
O73         Cu76   2.020       .  S
O73          C78   1.279       .  A
O74         Cu76   2.005       .  S
O74          C77   1.278       .  A
Cu75       Cu668   2.373       .  S
Cu76       Cu667   2.373   1_455  S
C77         O659   1.277   1_455  A
C77         C132   1.482       .  S
C78         O660   1.277   1_455  A
C78         C117   1.481       .  S
C79         O661   1.277   1_455  A
C79         C108   1.468       .  S
C80         O662   1.277   1_455  A
C80         C141   1.482       .  S
C81          C82   1.541       .  S
C81          C85   1.537       .  S
C81         C679   1.540       .  S
C81         C192   1.543       .  S
C82          H89   1.080       .  S
C82         C675   1.362       .  D
C83          C84   1.537       .  S
C83         C674   1.362   1_455  D
C83         C120   1.480       .  S
C84          C88   1.539       .  S
C84          C86   1.539       .  S
C84          H90   1.108       .  S
C85          H91   1.086       .  S
C85         C678   1.368       .  D
C86         C677   1.368   1_455  D
C86         C105   1.493       .  S
C87         C673   1.540   1_455  S
C87          H92   1.086       .  S
C87          C88   1.368       .  D
C88         C180   1.488       .  S
C93          C94   1.545       .  S
C93          C99   1.537       .  S
C93          C97   1.536       .  S
C93         C204   1.542       .  S
C94         H101   1.081       .  S
C94          C95   1.365       .  D
C95         C688   1.536   1_455  S
C95         C156   1.481       .  S
C96         C100   1.538       .  S
C96         C687   1.536       .  S
C96         C690   1.543       .  S
C96         H102   1.108       .  S
C97         H103   1.086       .  S
C97          C98   1.367       .  D
C98         C688   1.543   1_455  S
C98         C165   1.494       .  S
C99         H104   1.086       .  S
C99         C692   1.367   1_455  D
C100        C691   1.367       .  D
C100        C216   1.489       .  S
C105        C106   1.409       .  A
C105        C110   1.418       .  A
C106        C403   1.398       .  A
C106        H999   1.084       .  S
C107        C108   1.405       .  A
C107        C402   1.397   1_545  A
C107        C706   1.444       .  S
C108        C405   1.400   1_545  A
C109        C110   1.402       .  A
C109        C404   1.400       .  A
C109        H112   1.085       .  S
C110        C113   1.443       .  S
H111        C994   1.084       .  S
C113        N115   1.157       .  T
C114        C699   1.444       .  S
C114        N116   1.157       .  T
C117        C122   1.415       .  A
C117        C710   1.403   1_455  A
C118        C119   1.394       .  A
C118        C709   1.403       .  A
C118        H123   1.085       .  S
C119        C712   1.412       .  A
C119        C126   1.446       .  S
C120        C121   1.402       .  A
C120        C711   1.412   1_455  A
C121        C122   1.406       .  A
C121        H124   1.084       .  S
C122        C125   1.443       .  S
C125        N127   1.157       .  T
C126        N128   1.157       .  T
C129        C134   1.415   1_455  A
C129        C426   1.407       .  A
C130        C131   1.399       .  A
C130        C425   1.407       .  A
C130        H135   1.085       .  S
C131        C132   1.413   1_565  A
C131        C138   1.444       .  S
C132        C429   1.405   1_455  A
C133        C134   1.399       .  A
C133        C428   1.405   1_655  A
C133        H136   1.085       .  S
C134        C137   1.444       .  S
C137        N139   1.157       .  T
C138        N140   1.157       .  T
C141        C142   1.404       .  A
C141        C146   1.414   1_455  A
C142        C143   1.399       .  A
C142        H147   1.085       .  S
C143        C144   1.415       .  A
C143        C150   1.445       .  S
C144        C737   1.405   1_455  A
C145        C736   1.405       .  A
C145        C738   1.400       .  A
C145        H148   1.085       .  S
C146        C737   1.400       .  A
C146        C741   1.444       .  S
C149        C738   1.444       .  S
C149        N151   1.157       .  T
C150        N152   1.157       .  T
C153        C656   1.486       .  S
C153        C746   1.407   1_455  A
C153        C454   1.416       .  A
C154        C745   1.407       .  A
C154        C451   1.406       .  A
C154        H159   1.084       .  S
C155        C450   1.406   1_545  A
C155        C748   1.410       .  A
C155        C162   1.443       .  S
C156        C157   1.400       .  A
C156        C747   1.410   1_455  A
C157        C158   1.396       .  A
C157        H160   1.085       .  S
C158        C449   1.416   1_545  A
C158        C457   1.445       .  S
C161        C454   1.445       .  S
C161        N163   1.157       .  T
C162        N164   1.157       .  T
C165        C170   1.416   1_455  A
C165        C758   1.410       .  A
C166        C167   1.400       .  A
C166        C757   1.410       .  A
C166        H171   1.084       .  S
C167        C760   1.405       .  A
C167        C174   1.444       .  S
C168        C657   1.470       .  S
C168        C169   1.400   1_455  A
C168        C759   1.405       .  A
C169        C170   1.401       .  A
C169        H172   1.086       .  S
C170        C173   1.442       .  S
C173        N175   1.157       .  T
C174        N176   1.157       .  T
C177        C178   1.402       .  A
C177        C182   1.414       .  A
C178        C179   1.402       .  A
C178        H183   1.077       .  S
C179        C180   1.411       .  A
C179        C186   1.444       .  S
C180        C181   1.404       .  A
C181        C182   1.404       .  A
C181        H184   1.085       .  S
C182        C185   1.444       .  S
C185        N187   1.157       .  T
C186        N188   1.157       .  T
C189        C190   1.412       .  A
C189        C194   1.417       .  A
C190        C191   1.402       .  A
C190        H195   1.075       .  S
C191        C192   1.418       .  A
C191        C198   1.447       .  S
C192        C193   1.411       .  A
C193        C194   1.400       .  A
C193        H196   1.075       .  S
C194        C197   1.446       .  S
C197        N199   1.157       .  T
C198        N200   1.157       .  T
C201        C202   1.410       .  A
C201        C206   1.420       .  A
C202        C203   1.401       .  A
C202        H207   1.076       .  S
C203        C204   1.419       .  A
C203        C210   1.447       .  S
C204        C205   1.409       .  A
C205        C206   1.402       .  A
C205        H208   1.077       .  S
C206        C209   1.446       .  S
C209        N211   1.157       .  T
C210        N212   1.157       .  T
C213        C214   1.403       .  A
C213        C218   1.415       .  A
C214        C215   1.401       .  A
C214        H219   1.076       .  S
C215        C216   1.412       .  A
C215        C222   1.444       .  S
C216        C217   1.404       .  A
C217        C218   1.403       .  A
C217        H220   1.085       .  S
C218        C221   1.444       .  S
C221        N223   1.157       .  T
C222        N224   1.157       .  T
C225        C226   1.401       .  A
C225        C230   1.410       .  A
C226        C227   1.403       .  A
C226        H231   1.085       .  S
C227        C228   1.415       .  A
C227        C234   1.444       .  S
C228        C229   1.403       .  A
C229        C230   1.402       .  A
C229        H232   1.085       .  S
C230        C233   1.444       .  S
C233        N235   1.157       .  T
C234        N236   1.157       .  T
C237        C238   1.402       .  A
C237        C242   1.410       .  A
C238        C535   1.403   1_545  A
C238        H243   1.077       .  S
C239        C240   1.412       .  A
C239        C534   1.403       .  A
C239        C246   1.444       .  S
C240        C241   1.405       .  A
C241        C538   1.399       .  A
C241        H244   1.085       .  S
C242        C537   1.399       .  A
C242        C245   1.444       .  S
C245        N247   1.157       .  T
C246        N248   1.157       .  T
C249        C250   1.403       .  A
C249        C254   1.415       .  A
C250        C251   1.403       .  A
C250        H255   1.077       .  S
C251        C252   1.416       .  A
C251        C258   1.444       .  S
C252        C253   1.407       .  A
C253        C254   1.398       .  A
C253        H256   1.085       .  S
C254        C257   1.444       .  S
C257        N259   1.157       .  T
C258        N260   1.157       .  T
C261        C262   1.405       .  A
C261        C266   1.418       .  A
C262        C559   1.393   1_545  A
C262        H267   1.085       .  S
C263        C264   1.411       .  A
C263        C558   1.393       .  A
C263        C270   1.444       .  S
C264        C265   1.402       .  A
C265        C562   1.406       .  A
C265        H268   1.085       .  S
C266        C561   1.406   1_545  A
C266        C269   1.443       .  S
C269        N271   1.157       .  T
C270        N272   1.157       .  T
C273        C274   1.407   1_554  A
C273        C278   1.415       .  A
C274        C275   1.397       .  A
C274        H279   1.085   1_556  S
C275        C276   1.413       .  A
C275        C282   1.445       .  S
C276        C277   1.407       .  A
C277        C278   1.399   1_556  A
C277        H280   1.085       .  S
C278        C281   1.445       .  S
C281        N283   1.157       .  T
C282        N284   1.157       .  T
C285        C286   1.404       .  A
C285        C290   1.414       .  A
C286        C583   1.398   1_544  A
C286        H291   1.085       .  S
C287        C288   1.414       .  A
C287        C582   1.397   1_556  A
C287        C294   1.445       .  S
C288        C289   1.406       .  A
C289        C586   1.402   1_556  A
C289        H292   1.084       .  S
C290        C585   1.402   1_554  A
C290        C293   1.444       .  S
C293        N295   1.157       .  T
C294        N296   1.157       .  T
O297       Cu305   2.018       .  S
O297        C307   1.278       .  A
O298       Cu305   2.007       .  S
O298        C308   1.278       .  A
O299       Cu305   2.016       .  S
O299        C309   1.279       .  A
O300       Cu305   2.022       .  S
O300        C310   1.279       .  A
O301       Cu306   1.997       .  S
O301        C310   1.277       .  A
O302       Cu306   1.993       .  S
O302        C309   1.277       .  A
O303       Cu306   1.988       .  S
O303        C308   1.276       .  A
O304       Cu306   1.990       .  S
O304        C307   1.277       .  A
Cu305      Cu306   2.366       .  S
C307        C557   1.488       .  S
C308        C569   1.485       .  S
C309        C581   1.483       .  S
C310        C548   1.493       .  S
C311        C312   1.534       .  S
C311        C317   1.539       .  S
C311        C315   1.547       .  S
C311        C497   1.542       .  S
C312        H319   1.087       .  S
C312        C313   1.361       .  D
C313        C314   1.539       .  S
C313        C533   1.484       .  S
C314        C318   1.544       .  S
C314        C316   1.540       .  S
C314        H320   1.111       .  S
C315        H321   1.080       .  S
C315        C316   1.366       .  D
C316        C524   1.486       .  S
C317        H322   1.086       .  S
C317        C318   1.369       .  D
C318        C509   1.493       .  S
O323       Cu331   2.011       .  S
O323        C333   1.277       .  A
O324       Cu331   2.006       .  S
O324        C334   1.278       .  A
O325       Cu331   2.003       .  S
O325        C335   1.278       .  A
O326       Cu331   2.015       .  S
O326        C336   1.278       .  A
O327       Cu332   2.001       .  S
O327        C336   1.277       .  A
O328       Cu332   1.997       .  S
O328        C335   1.277       .  A
O329       Cu332   2.008       .  S
O329        C334   1.278       .  A
O330       Cu332   2.016       .  S
O330        C333   1.278       .  A
Cu331      Cu332   2.372       .  S
C333        C521   1.473       .  S
C334        C584   1.484       .  S
C335        C572   1.484       .  S
C336        C536   1.481       .  S
C337        C338   1.537       .  S
C337        C343   1.537       .  S
C337        C341   1.543       .  S
C337        C485   1.543       .  S
C338        H345   1.086       .  S
C338        C339   1.366       .  D
C339        C340   1.542       .  S
C339        C545   1.496       .  S
C340        C344   1.547       .  S
C340        C342   1.537       .  S
C340        H346   1.111       .  S
C341        H347   1.080       .  S
C341        C342   1.364       .  D
C342        C560   1.483       .  S
C343        H348   1.086       .  S
C343        C344   1.368       .  D
C344        C473   1.493       .  S
O349       Cu357   1.994       .  S
O349        C359   1.276       .  A
O350       Cu357   1.990       .  S
O350        C952   1.276       .  A
O351       Cu357   2.006       .  S
O351        C953   1.277       .  A
O352       Cu357   2.001       .  S
O352        C362   1.278       .  A
O353       Cu358   2.003       .  S
O353        C954   1.277       .  A
O354       Cu358   2.009       .  S
O354        C361   1.277       .  A
O355       Cu358   2.029       .  S
O355        C360   1.280       .  A
O356       Cu358   2.016       .  S
O356        C951   1.280       .  A
Cu357      Cu950   2.370   1_455  S
Cu358      Cu949   2.370       .  S
C359        O948   1.280   1_455  A
C359        C440   1.484       .  S
C360        O942   1.276       .  A
C360       C1041   1.485       .  S
C361        O943   1.277       .  A
C361       C1056   1.470       .  S
C362        O945   1.277   1_455  A
C362        C425   1.486       .  S
O363       Cu371   1.998       .  S
O363        C965   1.277       .  A
O364       Cu371   1.991       .  S
O364        C966   1.277       .  A
O365       Cu371   2.003       .  S
O365        C967   1.277       .  A
O366       Cu371   2.002       .  S
O366        C968   1.277       .  A
O367       Cu372   2.007       .  S
O367        C376   1.279       .  A
O368       Cu372   2.006       .  S
O368        C375   1.276       .  A
O369       Cu372   2.020       .  S
O369        C374   1.279       .  A
O370       Cu372   2.006       .  S
O370        C373   1.278       .  A
Cu371      Cu964   2.373       .  S
Cu372      Cu963   2.373   1_455  S
C373        O955   1.277   1_455  A
C373        C428   1.481       .  S
C374        O956   1.277   1_455  A
C374        C413   1.481       .  S
C375        O957   1.277   1_455  A
C375        C404   1.468       .  S
C376        O958   1.277   1_455  A
C376        C437   1.483       .  S
C377        C378   1.541       .  S
C377        C975   1.540       .  S
C377        C381   1.537       .  S
C377        C488   1.543       .  S
C378        H385   1.080       .  S
C378        C971   1.362       .  D
C379        C380   1.537       .  S
C379        C970   1.362   1_455  D
C379        C416   1.480       .  S
C380        C384   1.539       .  S
C380        C382   1.539       .  S
C380        H386   1.108       .  S
C381        H387   1.086       .  S
C381        C974   1.368       .  D
C382        C973   1.368   1_455  D
C382        C401   1.492       .  S
C383        C969   1.540   1_455  S
C383        H388   1.086       .  S
C383        C384   1.368       .  D
C384        C476   1.488       .  S
C389        C390   1.545       .  S
C389        C395   1.537       .  S
C389        C393   1.536       .  S
C389        C500   1.542       .  S
C390        H397   1.081       .  S
C390        C391   1.365       .  D
C391        C984   1.537   1_455  S
C391        C452   1.481       .  S
C392        C983   1.536       .  S
C392        C396   1.538       .  S
C392        C986   1.543       .  S
C392        H398   1.108       .  S
C393        H399   1.086       .  S
C393        C394   1.367       .  D
C394        C984   1.543   1_455  S
C394        C461   1.494       .  S
C395        H400   1.086       .  S
C395        C988   1.367   1_455  D
C396        C987   1.367       .  D
C396        C512   1.489       .  S
C401        C402   1.409       .  A
C401        C406   1.418       .  A
C402        H703   1.084       .  S
C403        C404   1.405       .  A
C403       C1002   1.444       .  S
C405        C406   1.402       .  A
C405        H408   1.085       .  S
C406        C409   1.443       .  S
H407        C698   1.084       .  S
C409        N411   1.157       .  T
C410        C995   1.444       .  S
C410        N412   1.157       .  T
C413       C1006   1.403   1_455  A
C413        C418   1.415       .  A
C414       C1005   1.403       .  A
C414        C415   1.394       .  A
C414        H419   1.085       .  S
C415       C1008   1.412       .  A
C415        C422   1.446       .  S
C416       C1007   1.412   1_455  A
C416        C417   1.402       .  A
C417        C418   1.406       .  A
C417        H420   1.084       .  S
C418        C421   1.443       .  S
C421        N423   1.157       .  T
C422        N424   1.157       .  T
C425        C430   1.416   1_455  A
C426        C427   1.399       .  A
C426        H431   1.085       .  S
C427        C428   1.412       .  A
C427        C434   1.444       .  S
C429        C430   1.399   1_545  A
C429        H432   1.085       .  S
C430        C433   1.444       .  S
C433        N435   1.157       .  T
C434        N436   1.157       .  T
C437        C438   1.404       .  A
C437        C442   1.414   1_455  A
C438        C439   1.399       .  A
C438        H443   1.085       .  S
C439        C440   1.415       .  A
C439        C446   1.445       .  S
C440       C1033   1.405   1_455  A
C441       C1032   1.405       .  A
C441       C1034   1.400       .  A
C441        H444   1.085       .  S
C442       C1033   1.400       .  A
C442       C1037   1.444       .  S
C445       C1034   1.444       .  S
C445        N447   1.157       .  T
C446        N448   1.157       .  T
C449        C952   1.485       .  S
C449       C1042   1.407   1_455  A
C450       C1041   1.407       .  A
C450        H455   1.084       .  S
C451       C1044   1.410       .  A
C451        C458   1.443       .  S
C452       C1043   1.410   1_455  A
C452        C453   1.400       .  A
C453        C454   1.396       .  A
C453        H456   1.085       .  S
C457        N459   1.157       .  T
C458        N460   1.157       .  T
C461       C1054   1.410       .  A
C461        C466   1.416   1_455  A
C462       C1053   1.410       .  A
C462        C463   1.400       .  A
C462        H467   1.084       .  S
C463       C1056   1.405       .  A
C463        C470   1.444       .  S
C464        C953   1.470       .  S
C464       C1055   1.405       .  A
C464        C465   1.400   1_455  A
C465        C466   1.401       .  A
C465        H468   1.086       .  S
C466        C469   1.442       .  S
C469        N471   1.157       .  T
C470        N472   1.157       .  T
C473        C474   1.402       .  A
C473        C478   1.414       .  A
C474        C475   1.402       .  A
C474        H479   1.077       .  S
C475        C476   1.411       .  A
C475        C482   1.444       .  S
C476        C477   1.404       .  A
C477        C478   1.404       .  A
C477        H480   1.085       .  S
C478        C481   1.444       .  S
C481        N483   1.157       .  T
C482        N484   1.157       .  T
C485        C486   1.412       .  A
C485        C490   1.417       .  A
C486        C487   1.402       .  A
C486        H491   1.075       .  S
C487        C488   1.418       .  A
C487        C494   1.447       .  S
C488        C489   1.411       .  A
C489        C490   1.400       .  A
C489        H492   1.075       .  S
C490        C493   1.446       .  S
C493        N495   1.157       .  T
C494        N496   1.157       .  T
C497        C498   1.410       .  A
C497        C502   1.420       .  A
C498        C499   1.401       .  A
C498        H503   1.076       .  S
C499        C500   1.419       .  A
C499        C506   1.447       .  S
C500        C501   1.409       .  A
C501        C502   1.402       .  A
C501        H504   1.077       .  S
C502        C505   1.446       .  S
C505        N507   1.157       .  T
C506        N508   1.157       .  T
C509        C510   1.403       .  A
C509        C514   1.415       .  A
C510        C511   1.401       .  A
C510        H515   1.076       .  S
C511        C512   1.412       .  A
C511        C518   1.444       .  S
C512        C513   1.404       .  A
C513        C514   1.403       .  A
C513        H516   1.085       .  S
C514        C517   1.444       .  S
C517        N519   1.157       .  T
C518        N520   1.157       .  T
C521        C522   1.401       .  A
C521        C526   1.410       .  A
C522        C523   1.403       .  A
C522        H527   1.085       .  S
C523        C524   1.415       .  A
C523        C530   1.444       .  S
C524        C525   1.403       .  A
C525        C526   1.402       .  A
C525        H528   1.085       .  S
C526        C529   1.444       .  S
C529        N531   1.157       .  T
C530        N532   1.157       .  T
C533        C534   1.402       .  A
C533        C538   1.410       .  A
C534        H539   1.077       .  S
C535        C536   1.413       .  A
C535        C542   1.444       .  S
C536        C537   1.405   1_565  A
C537        H540   1.085       .  S
C538        C541   1.444       .  S
C541        N543   1.157       .  T
C542        N544   1.157       .  T
C545        C546   1.403       .  A
C545        C550   1.415       .  A
C546        C547   1.403       .  A
C546        H551   1.077       .  S
C547        C548   1.416       .  A
C547        C554   1.444       .  S
C548        C549   1.407       .  A
C549        C550   1.398       .  A
C549        H552   1.085       .  S
C550        C553   1.444       .  S
C553        N555   1.157       .  T
C554        N556   1.157       .  T
C557        C558   1.405       .  A
C557        C562   1.418       .  A
C558        H563   1.085       .  S
C559        C560   1.411       .  A
C559        C566   1.444       .  S
C560        C561   1.402       .  A
C561        H564   1.085       .  S
C562        C565   1.443       .  S
C565        N567   1.157       .  T
C566        N568   1.157       .  T
C569        C570   1.407   1_554  A
C569        C574   1.415       .  A
C570        C571   1.397       .  A
C570        H575   1.085   1_556  S
C571        C572   1.413       .  A
C571        C578   1.445       .  S
C572        C573   1.407       .  A
C573        C574   1.399   1_556  A
C573        H576   1.085       .  S
C574        C577   1.445       .  S
C577        N579   1.157       .  T
C578        N580   1.157       .  T
C581        C582   1.404       .  A
C581        C586   1.414       .  A
C582        H587   1.085       .  S
C583        C584   1.414       .  A
C583        C590   1.445       .  S
C584        C585   1.406   1_565  A
C585        H588   1.085   1_545  S
C586        C589   1.444       .  S
C589        N591   1.157       .  T
C590        N592   1.157       .  T
O593       Cu601   2.019       .  S
O593        C603   1.278       .  A
O594       Cu601   2.007       .  S
O594        C604   1.278       .  A
O595       Cu601   2.015       .  S
O595        C605   1.279       .  A
O596       Cu601   2.022       .  S
O596        C606   1.279       .  A
O597       Cu602   1.997       .  S
O597        C606   1.277       .  A
O598       Cu602   1.993       .  S
O598        C605   1.277       .  A
O599       Cu602   1.988       .  S
O599        C604   1.276       .  A
O600       Cu602   1.990       .  S
O600        C603   1.277       .  A
Cu601      Cu602   2.366       .  S
C603        C853   1.488       .  S
C604        C865   1.485       .  S
C605        C877   1.483       .  S
C606        C844   1.493       .  S
C607        C608   1.534       .  S
C607        C613   1.539       .  S
C607        C611   1.547       .  S
C607        C793   1.542       .  S
C608        H615   1.087       .  S
C608        C609   1.361       .  D
C609        C610   1.539       .  S
C609        C829   1.484       .  S
C610        C614   1.544       .  S
C610        C612   1.540       .  S
C610        H616   1.111       .  S
C611        H617   1.080       .  S
C611        C612   1.366       .  D
C612        C820   1.486       .  S
C613        H618   1.086       .  S
C613        C614   1.369       .  D
C614        C805   1.493       .  S
O619       Cu627   2.012       .  S
O619        C629   1.277       .  A
O620       Cu627   2.006       .  S
O620        C630   1.278       .  A
O621       Cu627   2.003       .  S
O621        C631   1.278       .  A
O622       Cu627   2.015       .  S
O622        C632   1.278       .  A
O623       Cu628   2.001       .  S
O623        C632   1.277       .  A
O624       Cu628   1.997       .  S
O624        C631   1.277       .  A
O625       Cu628   2.008       .  S
O625        C630   1.278       .  A
O626       Cu628   2.015       .  S
O626        C629   1.278       .  A
Cu627      Cu628   2.372       .  S
C629        C817   1.473       .  S
C630        C880   1.484       .  S
C631        C868   1.484       .  S
C632        C832   1.481       .  S
C633        C634   1.537       .  S
C633        C639   1.537       .  S
C633        C637   1.543       .  S
C633        C781   1.543       .  S
C634        H641   1.086       .  S
C634        C635   1.366       .  D
C635        C636   1.542       .  S
C635        C841   1.496       .  S
C636        C640   1.547       .  S
C636        C638   1.537       .  S
C636        H642   1.111       .  S
C637        H643   1.080       .  S
C637        C638   1.364       .  D
C638        C856   1.483       .  S
C639        H644   1.086       .  S
C639        C640   1.368       .  D
C640        C769   1.493       .  S
O645       Cu653   1.994       .  S
O645        C655   1.276       .  A
O646       Cu653   1.990       .  S
O647       Cu653   2.005       .  S
O648       Cu653   2.002       .  S
O648        C658   1.278       .  A
O649       Cu654   2.003       .  S
O650       Cu654   2.009       .  S
O650        C657   1.277   1_655  A
O651       Cu654   2.029       .  S
O651        C656   1.280   1_655  A
O652       Cu654   2.016       .  S
C655        C736   1.483       .  S
C658        C721   1.485       .  S
O659       Cu667   1.998       .  S
O660       Cu667   1.991       .  S
O661       Cu667   2.003       .  S
O662       Cu667   2.002       .  S
O663       Cu668   2.007       .  S
O663        C672   1.279       .  A
O664       Cu668   2.006       .  S
O664        C671   1.276       .  A
O665       Cu668   2.020       .  S
O665        C670   1.279       .  A
O666       Cu668   2.006       .  S
O666        C669   1.278       .  A
C669        C724   1.482       .  S
C670        C709   1.481       .  S
C671        C700   1.468       .  S
C672        C733   1.482       .  S
C673        C674   1.541       .  S
C673        C677   1.537       .  S
C673        C784   1.543       .  S
C674        H681   1.080       .  S
C675        C676   1.537       .  S
C675        C712   1.480       .  S
C676        C680   1.539       .  S
C676        C678   1.539       .  S
C676        H682   1.108       .  S
C677        H683   1.086       .  S
C678        C697   1.492       .  S
C679        H684   1.086       .  S
C679        C680   1.368       .  D
C680        C772   1.488       .  S
C685        C686   1.545       .  S
C685        C691   1.537       .  S
C685        C689   1.536       .  S
C685        C796   1.542       .  S
C686        H693   1.081       .  S
C686        C687   1.365       .  D
C687        C748   1.481       .  S
C688        C692   1.538       .  S
C688        H694   1.108       .  S
C689        H695   1.086       .  S
C689        C690   1.367       .  D
C690        C757   1.494       .  S
C691        H696   1.086       .  S
C692        C808   1.489       .  S
C697        C698   1.409       .  A
C697        C702   1.418       .  A
C698        C995   1.398       .  A
C699        C994   1.397   1_545  A
C699        C700   1.405       .  A
C700        C997   1.400   1_545  A
C701        C996   1.400       .  A
C701        C702   1.402       .  A
C701        H704   1.085       .  S
C702        C705   1.443       .  S
C705        N707   1.157       .  T
C706        N708   1.157   1_455  T
C709        C714   1.415       .  A
C710        C711   1.394       .  A
C710        H715   1.085       .  S
C711        C718   1.446       .  S
C712        C713   1.402       .  A
C713        C714   1.406       .  A
C713        H716   1.084       .  S
C714        C717   1.443       .  S
C717        N719   1.157       .  T
C718        N720   1.157       .  T
C721       C1018   1.407       .  A
C721        C726   1.415       .  A
C722       C1017   1.407       .  A
C722        C723   1.399       .  A
C722        H727   1.085       .  S
C723        C724   1.412   1_565  A
C723        C730   1.444       .  S
C724       C1021   1.405       .  A
C725       C1020   1.405       .  A
C725        C726   1.399       .  A
C725        H728   1.085       .  S
C726        C729   1.444       .  S
C729        N731   1.157       .  T
C730        N732   1.157       .  T
C733        C734   1.404       .  A
C733        C738   1.414       .  A
C734        C735   1.399       .  A
C734        H739   1.085       .  S
C735        C736   1.415       .  A
C735        C742   1.445       .  S
C737        H740   1.085       .  S
C741        N743   1.157       .  T
C742        N744   1.157       .  T
C745       C1046   1.416       .  A
C746       C1043   1.406       .  A
C746        H751   1.084       .  S
C747       C1042   1.406   1_545  A
C747        C754   1.443       .  S
C748        C749   1.400       .  A
C749        C750   1.396       .  A
C749        H752   1.085       .  S
C750       C1041   1.416   1_545  A
C750       C1049   1.445       .  S
C753       C1046   1.445       .  S
C753        N755   1.157       .  T
C754        N756   1.157       .  T
C757        C762   1.416       .  A
C758        C759   1.400       .  A
C758        H763   1.084       .  S
C759        C766   1.444       .  S
C760        C761   1.400       .  A
C761        C762   1.401       .  A
C761        H764   1.086       .  S
C762        C765   1.442       .  S
C765        N767   1.157       .  T
C766        N768   1.157       .  T
C769        C770   1.402       .  A
C769        C774   1.414       .  A
C770        C771   1.402       .  A
C770        H775   1.077       .  S
C771        C772   1.411       .  A
C771        C778   1.444       .  S
C772        C773   1.404       .  A
C773        C774   1.404       .  A
C773        H776   1.085       .  S
C774        C777   1.444       .  S
C777        N779   1.157       .  T
C778        N780   1.157       .  T
C781        C782   1.412       .  A
C781        C786   1.417       .  A
C782        C783   1.402       .  A
C782        H787   1.075       .  S
C783        C784   1.418       .  A
C783        C790   1.447       .  S
C784        C785   1.411       .  A
C785        C786   1.400       .  A
C785        H788   1.075       .  S
C786        C789   1.446       .  S
C789        N791   1.157       .  T
C790        N792   1.157       .  T
C793        C794   1.410       .  A
C793        C798   1.420       .  A
C794        C795   1.401       .  A
C794        H799   1.076       .  S
C795        C796   1.419       .  A
C795        C802   1.447       .  S
C796        C797   1.409       .  A
C797        C798   1.402       .  A
C797        H800   1.077       .  S
C798        C801   1.446       .  S
C801        N803   1.157       .  T
C802        N804   1.157       .  T
C805        C806   1.403       .  A
C805        C810   1.415       .  A
C806        C807   1.401       .  A
C806        H811   1.076       .  S
C807        C808   1.412       .  A
C807        C814   1.444       .  S
C808        C809   1.404       .  A
C809        C810   1.403       .  A
C809        H812   1.085       .  S
C810        C813   1.444       .  S
C813        N815   1.157       .  T
C814        N816   1.157       .  T
C817        C818   1.401       .  A
C817        C822   1.410       .  A
C818        C819   1.403       .  A
C818        H823   1.085       .  S
C819        C820   1.415       .  A
C819        C826   1.444       .  S
C820        C821   1.403       .  A
C821        C822   1.402       .  A
C821        H824   1.085       .  S
C822        C825   1.444       .  S
C825        N827   1.157       .  T
C826        N828   1.157       .  T
C829        C830   1.402       .  A
C829        C834   1.410       .  A
C830       C1127   1.403   1_545  A
C830        H835   1.077       .  S
C831       C1126   1.402       .  A
C831        C832   1.412       .  A
C831        C838   1.444       .  S
C832        C833   1.405       .  A
C833       C1130   1.399       .  A
C833        H836   1.085       .  S
C834       C1129   1.399       .  A
C834        C837   1.444       .  S
C837        N839   1.157       .  T
C838        N840   1.157       .  T
C841        C842   1.403       .  A
C841        C846   1.415       .  A
C842        C843   1.403       .  A
C842        H847   1.077       .  S
C843        C844   1.416       .  A
C843        C850   1.444       .  S
C844        C845   1.407       .  A
C845        C846   1.398       .  A
C845        H848   1.085       .  S
C846        C849   1.444       .  S
C849        N851   1.157       .  T
C850        N852   1.157       .  T
C853        C854   1.405       .  A
C853        C858   1.418       .  A
C854       C1151   1.393   1_545  A
C854        H859   1.085       .  S
C855       C1150   1.392       .  A
C855        C856   1.411       .  A
C855        C862   1.444       .  S
C856        C857   1.402       .  A
C857       C1154   1.406       .  A
C857        H860   1.085       .  S
C858       C1153   1.406   1_545  A
C858        C861   1.443       .  S
C861        N863   1.157       .  T
C862        N864   1.157       .  T
C865        C866   1.407   1_554  A
C865        C870   1.415       .  A
C866        C867   1.397       .  A
C866        H871   1.085   1_556  S
C867        C868   1.413       .  A
C867        C874   1.445       .  S
C868        C869   1.407       .  A
C869        C870   1.399   1_556  A
C869        H872   1.085       .  S
C870        C873   1.445       .  S
C873        N875   1.157       .  T
C874        N876   1.157       .  T
C877        C878   1.404       .  A
C877        C882   1.414       .  A
C878       C1175   1.397   1_544  A
C878        H883   1.085       .  S
C879       C1174   1.398   1_556  A
C879        C880   1.414       .  A
C879        C886   1.445       .  S
C880        C881   1.406       .  A
C881       C1178   1.402   1_556  A
C881        H884   1.084       .  S
C882       C1177   1.402   1_554  A
C882        C885   1.444       .  S
C885        N887   1.157       .  T
C886        N888   1.157       .  T
O889       Cu897   2.018       .  S
O889        C899   1.278       .  A
O890       Cu897   2.007       .  S
O890        C900   1.278       .  A
O891       Cu897   2.016       .  S
O891        C901   1.279       .  A
O892       Cu897   2.023       .  S
O892        C902   1.279       .  A
O893       Cu898   1.997       .  S
O893        C902   1.277       .  A
O894       Cu898   1.993       .  S
O894        C901   1.277       .  A
O895       Cu898   1.988       .  S
O895        C900   1.276       .  A
O896       Cu898   1.990       .  S
O896        C899   1.278       .  A
Cu897      Cu898   2.366       .  S
C899       C1149   1.488       .  S
C900       C1161   1.485       .  S
C901       C1173   1.483       .  S
C902       C1140   1.493       .  S
C903        C904   1.534       .  S
C903        C909   1.540       .  S
C903        C907   1.547       .  S
C903       C1089   1.542       .  S
C904        H911   1.087       .  S
C904        C905   1.361       .  D
C905        C906   1.539       .  S
C905       C1125   1.483       .  S
C906        C910   1.544       .  S
C906        C908   1.540       .  S
C906        H912   1.111       .  S
C907        H913   1.080       .  S
C907        C908   1.366       .  D
C908       C1116   1.485       .  S
C909        H914   1.086       .  S
C909        C910   1.369       .  D
C910       C1101   1.493       .  S
O915       Cu923   2.011       .  S
O915        C925   1.277       .  A
O916       Cu923   2.006       .  S
O916        C926   1.278       .  A
O917       Cu923   2.003       .  S
O917        C927   1.278       .  A
O918       Cu923   2.015       .  S
O918        C928   1.278       .  A
O919       Cu924   2.001       .  S
O919        C928   1.277       .  A
O920       Cu924   1.997       .  S
O920        C927   1.277       .  A
O921       Cu924   2.008       .  S
O921        C926   1.278       .  A
O922       Cu924   2.016       .  S
O922        C925   1.278       .  A
Cu923      Cu924   2.372       .  S
C925       C1113   1.473       .  S
C926       C1176   1.484       .  S
C927       C1164   1.484       .  S
C928       C1128   1.482       .  S
C929        C930   1.537       .  S
C929        C935   1.537       .  S
C929        C933   1.543       .  S
C929       C1077   1.543       .  S
C930        H937   1.086       .  S
C930        C931   1.366       .  D
C931        C932   1.542       .  S
C931       C1137   1.496       .  S
C932        C936   1.547       .  S
C932        C934   1.536       .  S
C932        H938   1.111       .  S
C933        H939   1.080       .  S
C933        C934   1.364       .  D
C934       C1152   1.483       .  S
C935        H940   1.086       .  S
C935        C936   1.368       .  D
C936       C1065   1.493       .  S
O941       Cu949   1.994       .  S
O941        C951   1.276       .  A
O942       Cu949   1.990       .  S
O943       Cu949   2.005       .  S
O944       Cu949   2.001       .  S
O944        C954   1.278       .  A
O945       Cu950   2.003       .  S
O946       Cu950   2.009       .  S
O946        C953   1.277   1_655  A
O947       Cu950   2.029       .  S
O947        C952   1.280   1_655  A
O948       Cu950   2.016       .  S
C951       C1032   1.483       .  S
C954       C1017   1.485       .  S
O955       Cu963   1.997       .  S
O956       Cu963   1.991       .  S
O957       Cu963   2.003       .  S
O958       Cu963   2.002       .  S
O959       Cu964   2.007       .  S
O959        C968   1.279       .  A
O960       Cu964   2.006       .  S
O960        C967   1.276       .  A
O961       Cu964   2.020       .  S
O961        C966   1.279       .  A
O962       Cu964   2.005       .  S
O962        C965   1.278       .  A
C965       C1020   1.482       .  S
C966       C1005   1.481       .  S
C967        C996   1.468       .  S
C968       C1029   1.483       .  S
C969        C970   1.541       .  S
C969        C973   1.537       .  S
C969       C1080   1.543       .  S
C970        H977   1.080       .  S
C971        C972   1.537       .  S
C971       C1008   1.480       .  S
C972        C976   1.539       .  S
C972        C974   1.539       .  S
C972        H978   1.108       .  S
C973        H979   1.086       .  S
C974        C993   1.492       .  S
C975        H980   1.086       .  S
C975        C976   1.368       .  D
C976       C1068   1.488       .  S
C981        C982   1.545       .  S
C981        C987   1.537       .  S
C981        C985   1.536       .  S
C981       C1092   1.542       .  S
C982        H989   1.081       .  S
C982        C983   1.365       .  D
C983       C1044   1.481       .  S
C984        C988   1.538       .  S
C984        H990   1.108       .  S
C985        H991   1.086       .  S
C985        C986   1.367       .  D
C986       C1053   1.494       .  S
C987        H992   1.086       .  S
C988       C1104   1.489       .  S
C993        C994   1.409       .  A
C993        C998   1.418       .  A
C995        C996   1.405       .  A
C997        C998   1.402       .  A
C997       H1000   1.085       .  S
C998       C1001   1.443       .  S
C1001      N1003   1.157       .  T
C1002      N1004   1.157   1_455  T
C1005      C1010   1.415       .  A
C1006      C1007   1.394       .  A
C1006      H1011   1.085       .  S
C1007      C1014   1.446       .  S
C1008      C1009   1.402       .  A
C1009      C1010   1.406       .  A
C1009      H1012   1.084       .  S
C1010      C1013   1.443       .  S
C1013      N1015   1.157       .  T
C1014      N1016   1.157       .  T
C1017      C1022   1.415       .  A
C1018      C1019   1.399       .  A
C1018      H1023   1.085       .  S
C1019      C1020   1.412       .  A
C1019      C1026   1.444       .  S
C1021      C1022   1.399   1_545  A
C1021      H1024   1.085       .  S
C1022      C1025   1.444       .  S
C1025      N1027   1.157       .  T
C1026      N1028   1.157       .  T
C1029      C1030   1.404       .  A
C1029      C1034   1.414       .  A
C1030      C1031   1.399       .  A
C1030      H1035   1.085       .  S
C1031      C1032   1.415       .  A
C1031      C1038   1.445       .  S
C1033      H1036   1.085       .  S
C1037      N1039   1.157       .  T
C1038      N1040   1.157       .  T
C1042      H1047   1.084       .  S
C1043      C1050   1.443       .  S
C1044      C1045   1.400       .  A
C1045      C1046   1.396       .  A
C1045      H1048   1.085       .  S
C1049      N1051   1.157       .  T
C1050      N1052   1.157       .  T
C1053      C1058   1.416       .  A
C1054      C1055   1.400       .  A
C1054      H1059   1.084       .  S
C1055      C1062   1.444       .  S
C1056      C1057   1.400       .  A
C1057      C1058   1.401       .  A
C1057      H1060   1.086       .  S
C1058      C1061   1.442       .  S
C1061      N1063   1.157       .  T
C1062      N1064   1.157       .  T
C1065      C1066   1.402       .  A
C1065      C1070   1.414       .  A
C1066      C1067   1.402       .  A
C1066      H1071   1.077       .  S
C1067      C1068   1.411       .  A
C1067      C1074   1.444       .  S
C1068      C1069   1.404       .  A
C1069      C1070   1.404       .  A
C1069      H1072   1.085       .  S
C1070      C1073   1.444       .  S
C1073      N1075   1.157       .  T
C1074      N1076   1.157       .  T
C1077      C1078   1.412       .  A
C1077      C1082   1.417       .  A
C1078      C1079   1.402       .  A
C1078      H1083   1.075       .  S
C1079      C1080   1.418       .  A
C1079      C1086   1.447       .  S
C1080      C1081   1.411       .  A
C1081      C1082   1.400       .  A
C1081      H1084   1.075       .  S
C1082      C1085   1.446       .  S
C1085      N1087   1.157       .  T
C1086      N1088   1.157       .  T
C1089      C1090   1.410       .  A
C1089      C1094   1.420       .  A
C1090      C1091   1.401       .  A
C1090      H1095   1.076       .  S
C1091      C1092   1.419       .  A
C1091      C1098   1.447       .  S
C1092      C1093   1.409       .  A
C1093      C1094   1.402       .  A
C1093      H1096   1.077       .  S
C1094      C1097   1.446       .  S
C1097      N1099   1.157       .  T
C1098      N1100   1.157       .  T
C1101      C1102   1.403       .  A
C1101      C1106   1.415       .  A
C1102      C1103   1.401       .  A
C1102      H1107   1.076       .  S
C1103      C1104   1.412       .  A
C1103      C1110   1.444       .  S
C1104      C1105   1.404       .  A
C1105      C1106   1.403       .  A
C1105      H1108   1.085       .  S
C1106      C1109   1.444       .  S
C1109      N1111   1.157       .  T
C1110      N1112   1.157       .  T
C1113      C1114   1.401       .  A
C1113      C1118   1.410       .  A
C1114      C1115   1.403       .  A
C1114      H1119   1.085       .  S
C1115      C1116   1.415       .  A
C1115      C1122   1.444       .  S
C1116      C1117   1.403       .  A
C1117      C1118   1.402       .  A
C1117      H1120   1.085       .  S
C1118      C1121   1.444       .  S
C1121      N1123   1.157       .  T
C1122      N1124   1.157       .  T
C1125      C1126   1.402       .  A
C1125      C1130   1.410       .  A
C1126      H1131   1.077       .  S
C1127      C1128   1.413       .  A
C1127      C1134   1.444       .  S
C1128      C1129   1.405   1_565  A
C1129      H1132   1.085       .  S
C1130      C1133   1.444       .  S
C1133      N1135   1.157       .  T
C1134      N1136   1.157       .  T
C1137      C1138   1.403       .  A
C1137      C1142   1.415       .  A
C1138      C1139   1.403       .  A
C1138      H1143   1.077       .  S
C1139      C1140   1.416       .  A
C1139      C1146   1.444       .  S
C1140      C1141   1.407       .  A
C1141      C1142   1.398       .  A
C1141      H1144   1.085       .  S
C1142      C1145   1.444       .  S
C1145      N1147   1.157       .  T
C1146      N1148   1.157       .  T
C1149      C1150   1.405       .  A
C1149      C1154   1.418       .  A
C1150      H1155   1.085       .  S
C1151      C1152   1.411       .  A
C1151      C1158   1.444       .  S
C1152      C1153   1.402       .  A
C1153      H1156   1.085       .  S
C1154      C1157   1.443       .  S
C1157      N1159   1.157       .  T
C1158      N1160   1.157       .  T
C1161      C1162   1.407   1_554  A
C1161      C1166   1.415       .  A
C1162      C1163   1.397       .  A
C1162      H1167   1.085   1_556  S
C1163      C1164   1.413       .  A
C1163      C1170   1.445       .  S
C1164      C1165   1.407       .  A
C1165      C1166   1.399   1_556  A
C1165      H1168   1.085       .  S
C1166      C1169   1.445       .  S
C1169      N1171   1.157       .  T
C1170      N1172   1.157       .  T
C1173      C1174   1.404       .  A
C1173      C1178   1.414       .  A
C1174      H1179   1.085       .  S
C1175      C1176   1.414       .  A
C1175      C1182   1.445       .  S
C1176      C1177   1.406   1_565  A
C1177      H1180   1.084   1_545  S
C1178      C1181   1.444       .  S
C1181      N1183   1.157       .  T
C1182      N1184   1.157       .  T
