geometry optimzed in LAMMPS
_audit_creation_date              2020-11-30 
_audit_creation_method            'lammps2cif' 
_symmetry_space_group_name_H-M    'P1' 
_symmetry_Int_Tables_number       1 
_symmetry_cell_setting            triclinic 
loop_ 
_symmetry_equiv_pos_as_xyz 
  x,y,z 
_cell_length_a                    42.45608419 
_cell_length_b                    42.46701843134291 
_cell_length_c                    42.24088767757965 
_cell_angle_alpha                 89.83516764730399 
_cell_angle_beta                  90.03124636600273 
_cell_angle_gamma                 90.01231748775959 
loop_ 
_atom_site_label 
_atom_site_type_symbol 
_atom_site_fract_x 
_atom_site_fract_y 
_atom_site_fract_z 
_atom_site_charge 
O1          O  0.30471059  0.76780987  0.48168200    -0.75600
C2          C  0.31147910  0.70801373  0.56192325     0.85400
O3          O  0.27640824  0.65303497  0.46785311    -0.76700
O4          O  0.20892104  0.69685001  0.55975294    -0.78200
O5          O  0.20408158  0.78039971  0.50253511    -0.78000
O6          O  0.26155023  0.78091140  0.45430125    -0.76600
Zn7        Zn  0.29512015  0.72343610  0.49414585     1.55700
O8          O  0.22614729  0.77346859  0.55026439    -0.78000
Cd9        Cd  0.22904727  0.75039435  0.47406926     1.59700
Cd10       Cd  0.23855043  0.67605757  0.48944121     1.59600
O11         O  0.19845868  0.72857157  0.44215398    -0.78000
O12         O  0.25131791  0.71920631  0.50062430    -1.88500
Cd13       Cd  0.24366155  0.72754435  0.54571455     1.59900
O14         O  0.20405459  0.67786885  0.45538991    -0.78000
O15         O  0.28415693  0.71563711  0.57206224    -0.76600
C16         C  0.30033130  0.66589270  0.45469704     0.85900
C17         C  0.28940958  0.78668067  0.46398364     0.85600
O18         O  0.31881042  0.71030761  0.53286876    -0.75600
C19         C  0.20871886  0.78897560  0.53098062     0.86400
O20         O  0.30850113  0.69413396  0.46022408    -0.75700
C21         C  0.19108425  0.69956232  0.43922649     0.86500
C22         C  0.20278429  0.66867179  0.55158282     0.86800
O23         O  0.21586295  0.65524759  0.52792609    -0.78100
O24         O  0.82017863  0.70322086  0.96613437    -0.75600
C25         C  0.78813851  0.77769492  0.03713074     0.85400
O26         O  0.77926755  0.64375431  0.03052391    -0.76700
O27         O  0.69658397  0.71897925  0.05391952    -0.78200
O28         O  0.72794172  0.76114985  0.94551424    -0.78000
O29         O  0.78452397  0.70205258  0.92745451    -0.76600
Zn30       Zn  0.79591561  0.71540265  0.00490055     1.55700
O31         O  0.70557330  0.77108362  0.99250194    -0.78000
Cd32       Cd  0.74420913  0.71536593  0.95287671     1.59700
Cd33       Cd  0.73997784  0.66613362  0.01067175     1.59600
O34         O  0.70883811  0.68476245  0.94021171    -0.78000
O35         O  0.75205176  0.70940816  0.99838713    -1.88500
Cd36       Cd  0.72849883  0.74098508  0.02319596     1.59900
O37         O  0.71632404  0.64416988  0.97331089    -0.78000
O38         O  0.75991081  0.77126308  0.04521304    -0.76600
C39         C  0.80373254  0.65667523  0.04254168     0.85900
C40         C  0.81249216  0.69751683  0.93765053     0.85600
O41         O  0.80433801  0.75975075  0.01930304    -0.75600
C42         C  0.71082259  0.77809416  0.96363685     0.86400
O43         O  0.81094009  0.68529633  0.03753211    -0.75700
C44         C  0.70273049  0.65686172  0.94945034     0.86500
C45         C  0.69101117  0.68984800  0.05919112     0.86800
O46         O  0.70601719  0.66786314  0.04546666    -0.78100
O47         O  0.20690613  0.53868915  0.18184959    -0.75600
C48         C  0.28212588  0.46895796  0.21574680     0.85400
O49         O  0.14844289  0.47608420  0.22367328    -0.76700
O50         O  0.21999340  0.45273616  0.30697675    -0.78200
O51         O  0.26687201  0.55871639  0.27427341    -0.78000
O52         O  0.20887725  0.57808208  0.21647030    -0.76600
Zn53       Zn  0.21993063  0.50078687  0.20713972     1.55700
O54         O  0.27432309  0.51234403  0.29874654    -0.78000
Cd55       Cd  0.22118798  0.55317224  0.25749697     1.59700
Cd56       Cd  0.16989241  0.49826539  0.26214159     1.59600
O57         O  0.19020021  0.56824803  0.29150890    -0.78000
O58         O  0.21377936  0.50814361  0.25081807    -1.88500
Cd59       Cd  0.24412958  0.48245481  0.27516911     1.59900
O60         O  0.14822766  0.53786230  0.28166066    -0.78000
O61         O  0.27506951  0.46042645  0.24390315    -0.76600
C62         C  0.16206646  0.46230184  0.20053401     0.85900
C63         C  0.20261301  0.56742863  0.18895139     0.85600
O64         O  0.26452617  0.48708110  0.19940012    -0.75600
C65         C  0.28266058  0.54051010  0.29248418     0.86400
O66         O  0.19077143  0.46703918  0.19350933    -0.75700
C67         C  0.16128564  0.56131280  0.29533368     0.86500
C68         C  0.19055890  0.45014628  0.31309043     0.86800
O69         O  0.16961504  0.46571630  0.29828017    -0.78100
O70         O  0.53433566  0.18123205  0.19417015    -0.75600
C71         C  0.46496935  0.21143442  0.27032662     0.85400
O72         O  0.46895052  0.22363583  0.13546703    -0.76700
O73         O  0.44478428  0.30284955  0.21195890    -0.78200
O74         O  0.55272345  0.27392942  0.25587042    -0.78000
O75         O  0.57289389  0.21658721  0.19816514    -0.76600
Zn76       Zn  0.49523651  0.20468536  0.20661271     1.55700
O77         O  0.50555952  0.29606463  0.26394024    -0.78000
Cd78       Cd  0.54665189  0.25660805  0.21000003     1.59700
Cd79       Cd  0.48993024  0.26165103  0.15876291     1.59600
O80         O  0.56031734  0.29102745  0.17878150    -0.78000
O81         O  0.50162204  0.24870710  0.20213641    -1.88500
Cd82       Cd  0.47626755  0.27169003  0.23376079     1.59900
O83         O  0.52818145  0.28382252  0.13729165    -0.78000
O84         O  0.45612799  0.23955059  0.26448098    -0.76600
C85         C  0.45668559  0.19898777  0.14782164     0.85900
C86         C  0.56308910  0.18903610  0.19123199     0.85600
O87         O  0.48197793  0.19557291  0.25131615    -0.75600
C88         C  0.53408421  0.29131373  0.27194311     0.86400
O89         O  0.46223035  0.19052956  0.17619141    -0.75700
C90         C  0.55196367  0.29685362  0.15042711     0.86500
C91         C  0.44099618  0.31001782  0.18280349     0.86800
O92         O  0.45609652  0.29648717  0.16067999    -0.78100
O93         O  0.32716761  0.20544739  0.46982751    -0.75600
C94         C  0.29379806  0.28520509  0.53392528     0.85400
O95         O  0.28172218  0.15011810  0.53402826    -0.76700
O96         O  0.20188005  0.22599516  0.55436304    -0.78200
O97         O  0.23576420  0.26718869  0.44565646    -0.78000
O98         O  0.29368199  0.20821967  0.42934209    -0.76600
Zn99       Zn  0.30171389  0.22009656  0.50719819     1.55700
O100        O  0.21006459  0.27493592  0.49132724    -0.78000
Cd101      Cd  0.25262024  0.22174860  0.45344376     1.59700
Cd102      Cd  0.24463230  0.17254035  0.51092622     1.59600
O103        O  0.21813100  0.19128033  0.43917494    -0.78000
O104        O  0.25812628  0.21533354  0.49913803    -1.88500
Cd105      Cd  0.23411629  0.24722730  0.52304735     1.59900
O106        O  0.22380402  0.15040069  0.47230410    -0.78000
O107        O  0.26536565  0.27976203  0.54216495    -0.76600
C108        C  0.30522972  0.16300886  0.54778518     0.85900
C109        C  0.32070037  0.20132888  0.44074132     0.85600
O110        O  0.31027110  0.26530598  0.51860713    -0.75600
C111        C  0.21651775  0.28266981  0.46292828     0.86400
O112        O  0.31362463  0.19127427  0.54238577    -0.75700
C113        C  0.21162310  0.16333261  0.44784633     0.86500
C114        C  0.19452662  0.19697598  0.55792484     0.86800
O115        O  0.20860725  0.17497986  0.54331440    -0.78100
O116        O  0.74894232  0.52671774  0.19174604    -0.75600
C117        C  0.69002896  0.44440755  0.18640826     0.85400
O118        O  0.63435386  0.53935193  0.22430409    -0.76700
O119        O  0.67698858  0.44628045  0.28995011    -0.78200
O120        O  0.76520776  0.50227202  0.29156883    -0.78000
O121        O  0.76327366  0.55225068  0.23561776    -0.76600
Zn122      Zn  0.70480254  0.51240855  0.20254562     1.55700
O123        O  0.75466227  0.45441775  0.27198898    -0.78000
Cd124      Cd  0.73394504  0.53142858  0.26868549     1.59700
Cd125      Cd  0.65877788  0.51816683  0.26177829     1.59600
O126        O  0.71403109  0.56308311  0.30080132    -0.78000
O127        O  0.70132862  0.50571572  0.24711197    -1.88500
Cd128      Cd  0.70840822  0.46033607  0.25516206     1.59900
O129        O  0.66269007  0.55236631  0.29615561    -0.78000
O130        O  0.69659054  0.43445744  0.21424617    -0.76600
C131        C  0.64569798  0.55093932  0.19875335     0.85900
C132        C  0.76826237  0.54384618  0.20712508     0.85600
O133        O  0.69281436  0.47326220  0.17884544    -0.75600
C134        C  0.77222041  0.47343634  0.28754316     0.86400
O135        O  0.67341909  0.54479728  0.18917525    -0.75700
C136        C  0.68534571  0.56738017  0.30879115     0.86500
C137        C  0.64930797  0.45559675  0.29696637     0.86800
O138        O  0.63709104  0.48050805  0.28512831    -0.78100
O139        O  0.01938125  0.31652773  0.24501654    -0.75600
C140        C  0.93729668  0.32154995  0.30356968     0.85400
O141        O  0.03126773  0.28635899  0.36046294    -0.76700
O142        O  0.93957662  0.21964668  0.31584470    -0.78200
O143        O  0.99614569  0.21409136  0.23140413    -0.78000
O144        O  0.04461923  0.27258411  0.23068630    -0.76600
Zn145      Zn  0.00542753  0.30606111  0.28926556     1.55700
O146        O  0.94867349  0.23576572  0.23911601    -0.78000
Cd147      Cd  0.02502376  0.23960942  0.26129520     1.59700
Cd148      Cd  0.00995132  0.24873714  0.33660208     1.59600
O149        O  0.05741258  0.20957299  0.28371097    -0.78000
O150        O  0.99900946  0.26192037  0.29299399    -1.88500
Cd151      Cd  0.95407227  0.25390913  0.28469776     1.59900
O152        O  0.04423451  0.21463096  0.33471732    -0.78000
O153        O  0.92767982  0.29413700  0.29579836    -0.76600
C154        C  0.04414705  0.31070766  0.34810675     0.85900
C155        C  0.03652227  0.30112675  0.22575265     0.85600
O156        O  0.96616992  0.32931591  0.30178806    -0.75600
C157        C  0.96747868  0.21818537  0.22344843     0.86400
O158        O  0.03857960  0.31939189  0.31982968    -0.75700
C159        C  0.06057910  0.20213996  0.31290558     0.86500
C160        C  0.94765747  0.21329420  0.34416550     0.86800
O161        O  0.97160069  0.22582330  0.35754133    -0.78100
O162        O  0.80175997  0.04014107  0.31713728    -0.75600
C163        C  0.72328991  0.97219522  0.29193854     0.85400
O164        O  0.85797253  0.97580055  0.27348765    -0.76700
O165        O  0.78211804  0.94640367  0.19932698    -0.78200
O166        O  0.73694480  0.05547014  0.22321493    -0.78000
O167        O  0.79394943  0.07870218  0.28216068    -0.76600
Zn168      Zn  0.78780595  0.00128656  0.29438230     1.55700
O169        O  0.73023872  0.00720437  0.20270016    -0.78000
Cd170      Cd  0.78246547  0.05194811  0.24165357     1.59700
Cd171      Cd  0.83404999  0.99681561  0.23585534     1.59600
O172        O  0.81302029  0.06712837  0.20687658    -0.78000
O173        O  0.79094070  0.00709325  0.24994642    -1.88500
Cd174      Cd  0.75951286  0.97924207  0.22947380     1.59900
O175        O  0.85471711  0.03548742  0.21316922    -0.78000
O176        O  0.72791752  0.96210210  0.26379207    -0.76600
C177        C  0.84594411  0.96256197  0.29787403     0.85900
C178        C  0.80295162  0.06904517  0.30942469     0.85600
O179        O  0.74341054  0.98927493  0.30624380    -0.75600
C180        C  0.72188031  0.03580738  0.20595753     0.86400
O181        O  0.81789248  0.96777356  0.30699883    -0.75700
C182        C  0.84131617  0.05943317  0.20062456     0.86500
C183        C  0.81087131  0.94493769  0.19013583     0.86800
O184        O  0.83218359  0.96272598  0.20137708    -0.78100
O185        O  0.69662988  0.75068842  0.48105204    -0.75600
C186        C  0.69143104  0.80868744  0.56318919     0.85400
O187        O  0.72451334  0.86585449  0.46890336    -0.76700
O188        O  0.79308611  0.82163648  0.55970098    -0.78200
O189        O  0.79723135  0.73745001  0.50131321    -0.78000
O190        O  0.73950069  0.73821363  0.45303849    -0.76600
Zn191      Zn  0.70638243  0.79477446  0.49471824     1.55700
O192        O  0.77629500  0.74483848  0.54943009    -0.78000
Cd193      Cd  0.77243887  0.76832449  0.47311112     1.59700
Cd194      Cd  0.76299608  0.84263946  0.48925950     1.59600
O195        O  0.80301627  0.79098092  0.44131527    -0.78000
O196        O  0.75045071  0.79923720  0.50022237    -1.88500
Cd197      Cd  0.75893819  0.79061083  0.54521544     1.59900
O198        O  0.79741009  0.84156131  0.45484910    -0.78000
O199        O  0.71910222  0.80139942  0.57251365    -0.76600
C200        C  0.69986032  0.85346503  0.45675013     0.85900
C201        C  0.71166324  0.73224636  0.46276855     0.85600
O202        O  0.68335626  0.80668777  0.53430656    -0.75600
C203        C  0.79292405  0.72896226  0.52991437     0.86400
O204        O  0.69178898  0.82513849  0.46210766    -0.75700
C205        C  0.81035541  0.82006598  0.43847360     0.86500
C206        C  0.79807737  0.85019891  0.55197466     0.86800
O207        O  0.78493028  0.86338898  0.52814425    -0.78100
C208        C  0.92637837  0.84680087  0.34566789     0.89400
C209        C  0.94553983  0.86547340  0.37050428    -0.50900
C210        C  0.92738581  0.88611412  0.38771523     0.12300
C211        C  0.89219542  0.88528220  0.37888028     0.23200
C212        C  0.90024118  0.83032886  0.36430263    -0.51600
C213        C  0.88230300  0.85039666  0.38170165     0.12400
C214        C  0.90972538  0.87203460  0.32587286    -0.51100
C215        C  0.89212522  0.89220941  0.34327986     0.13000
H216        H  0.97103956  0.86457495  0.37223065     0.17500
H217        H  0.87738999  0.90175814  0.39284705     0.03200
H218        H  0.89605188  0.80509517  0.36353054     0.17800
H219        H  0.91222327  0.87422703  0.30033848     0.17600
C220        C  0.83444545  0.16362141  0.42160830     0.89400
C221        C  0.81855568  0.14454287  0.39551259    -0.50900
C222        C  0.83866658  0.12528517  0.37959454     0.12300
C223        C  0.87320934  0.12677267  0.39164309     0.23200
C224        C  0.85055971  0.13938858  0.44321466    -0.51600
C225        C  0.87135313  0.12000816  0.42786403     0.12400
C226        C  0.86135967  0.18113572  0.40543007    -0.51100
C227        C  0.88173821  0.16204295  0.38992102     0.13000
H228        H  0.79368211  0.14649628  0.38973321     0.17500
H229        H  0.88962538  0.11165607  0.37810422     0.03200
H230        H  0.84691887  0.13861364  0.46865904     0.17800
H231        H  0.86424303  0.20656830  0.40636044     0.17600
C232        C  0.84951183  0.93783002  0.65830054     0.89400
C233        C  0.86881463  0.91347691  0.67676746    -0.50900
C234        C  0.88683946  0.89477740  0.65797326     0.12300
C235        C  0.88409074  0.90223892  0.62235040     0.23200
C236        C  0.87370184  0.95651968  0.63832613    -0.51600
C237        C  0.89193088  0.93759887  0.61918216     0.12400
C238        C  0.83064966  0.91889853  0.63418041    -0.51100
C239        C  0.84866329  0.90051852  0.61528160     0.13000
H240        H  0.86772277  0.91074138  0.70233317     0.17500
H241        H  0.89853340  0.88666790  0.60702536     0.03200
H242        H  0.87576834  0.98196812  0.63908711     0.17800
H243        H  0.80515795  0.92018467  0.63194774     0.17600
C244        C  0.15208241  0.08557954  0.33807119     0.89400
C245        C  0.12701557  0.06712259  0.35697359    -0.50900
C246        C  0.11085147  0.08557926  0.37819069     0.12300
C247        C  0.12105338  0.12044204  0.37773637     0.23200
C248        C  0.13431126  0.11256467  0.32208264    -0.51600
C249        C  0.11797807  0.13083309  0.34277298     0.12400
C250        C  0.17280948  0.10106324  0.36312627    -0.51100
C251        C  0.15665026  0.11903864  0.38394164     0.13000
H252        H  0.12389316  0.04181941  0.35519408     0.17500
H253        H  0.10802518  0.13556301  0.39470511     0.03200
H254        H  0.13460330  0.11685963  0.29670828     0.17800
H255        H  0.19817573  0.09773028  0.36459442     0.17600
C256        C  0.07570514  0.16593112  0.64617993     0.89400
C257        C  0.10186354  0.18375679  0.62887700    -0.50900
C258        C  0.12014441  0.16502023  0.61042020     0.12300
C259        C  0.11046282  0.12994708  0.61088269     0.23200
C260        C  0.05685601  0.14881622  0.62010168    -0.51600
C261        C  0.07524750  0.12956446  0.60147112     0.12400
C262        C  0.09229675  0.13973468  0.66449690    -0.51100
C263        C  0.11024715  0.12080027  0.64613352     0.13000
H264        H  0.10590208  0.20889960  0.63140325     0.17500
H265        H  0.12567116  0.11456460  0.59612950     0.03200
H266        H  0.03156899  0.15122998  0.61743728     0.17800
H267        H  0.08975671  0.13617355  0.68988108     0.17600
C268        C  0.15664278  0.85885960  0.56986712     0.89400
C269        C  0.13673604  0.88377118  0.55212996    -0.50900
C270        C  0.11691096  0.90034654  0.57179911     0.12300
C271        C  0.11972551  0.89072981  0.60696322     0.23200
C272        C  0.17431420  0.87693496  0.59549610    -0.51600
C273        C  0.15512652  0.89357847  0.61499654     0.12400
C274        C  0.13268829  0.83856058  0.58753106    -0.51100
C275        C  0.11337699  0.85519558  0.60672119     0.13000
H276        H  0.13667451  0.88638760  0.52655783     0.17500
H277        H  0.10396368  0.90406620  0.62308541     0.03200
H278        H  0.19974929  0.87617657  0.59836977     0.17800
H279        H  0.13098076  0.81313619  0.58494923     0.17600
O280        O  0.02571954  0.02202127  0.42073170    -0.75600
C281        C  0.97240577  0.93770406  0.44803657     0.85400
O282        O  0.93859622  0.06262740  0.48211124    -0.76700
O283        O  0.96049467  0.96602843  0.54811891    -0.78200
O284        O  0.07148966  0.98815018  0.51366826    -0.78000
O285        O  0.06004939  0.04150988  0.45549392    -0.76600
Zn286      Zn  0.98792727  0.00852084  0.44755205     1.55700
O287        O  0.03789407  0.95068296  0.52911878    -0.78000
Cd288      Cd  0.04231562  0.02499362  0.49840684     1.59700
Cd289      Cd  0.96818312  0.03968336  0.51515981     1.59600
O290        O  0.04436360  0.06120855  0.53176320    -0.78000
O291        O  0.99781841  0.00985929  0.49284451    -1.88500
Cd292      Cd  0.99426085  0.96635503  0.51183086     1.59900
O293        O  0.99399565  0.07285124  0.54145700    -0.78000
O294        O  0.98011248  0.93413479  0.47705569    -0.76600
C295        C  0.93593902  0.05913753  0.45211755     0.85900
C296        C  0.05132031  0.03646818  0.42702054     0.85600
O297        O  0.97377845  0.96456985  0.43441599    -0.75600
C298        C  0.06594025  0.96128926  0.52615212     0.86400
O299        O  0.95287325  0.03939985  0.43709531    -0.75700
C300        C  0.02342043  0.07750115  0.54600948     0.86500
C301        C  0.94110900  0.98658113  0.55862972     0.86800
O302        O  0.94056401  0.01474283  0.54785885    -0.78100
O303        O  0.67567766  0.30982460  0.46955087    -0.75600
C304        C  0.71050238  0.23487780  0.53883791     0.85400
O305        O  0.72149904  0.36870402  0.53517123    -0.76700
O306        O  0.80380919  0.29162312  0.55310079    -0.78200
O307        O  0.76681085  0.25182714  0.44564089    -0.78000
O308        O  0.71013946  0.30946182  0.42989998    -0.76600
Zn309      Zn  0.70143694  0.29821465  0.50806959     1.55700
O310        O  0.79157662  0.24134473  0.49126215    -0.78000
Cd311      Cd  0.75085761  0.29708910  0.45451300     1.59700
Cd312      Cd  0.75895812  0.34593622  0.51259669     1.59600
O313        O  0.78490171  0.32779265  0.44020783    -0.78000
O314        O  0.74527652  0.30321272  0.50028813    -1.88500
Cd315      Cd  0.77006741  0.27093165  0.52333297     1.59900
O316        O  0.77955087  0.36824933  0.47373252    -0.78000
O317        O  0.73925452  0.24035374  0.54566463    -0.76600
C318        C  0.69659325  0.35655845  0.54710660     0.85900
C319        C  0.68249240  0.31426740  0.44056453     0.85600
O320        O  0.69364649  0.25389423  0.52271571    -0.75600
C321        C  0.78492493  0.23476232  0.46263100     0.86400
O322        O  0.68785885  0.32855590  0.54117230    -0.75700
C323        C  0.79130277  0.35567541  0.44894400     0.86500
C324        C  0.81044039  0.32056096  0.55807011     0.86800
O325        O  0.79532146  0.34298132  0.54501621    -0.78100
O326        O  0.02949743  0.68921605  0.69947732    -0.75600
C327        C  0.96266548  0.72116443  0.77680179     0.85400
O328        O  0.96510213  0.73392014  0.64305505    -0.76700
O329        O  0.94348810  0.81351797  0.71858052    -0.78200
O330        O  0.05003541  0.78073878  0.76243485    -0.78000
O331        O  0.06933630  0.72282946  0.70471958    -0.76600
Zn332      Zn  0.99186961  0.71426553  0.71315007     1.55700
O333        O  0.00335253  0.80411446  0.77024586    -0.78000
Cd334      Cd  0.04430249  0.76380898  0.71647649     1.59700
Cd335      Cd  0.98772460  0.77116215  0.66557192     1.59600
O336        O  0.05923146  0.79751106  0.68509891    -0.78000
O337        O  0.99913563  0.75784915  0.70860799    -1.88500
Cd338      Cd  0.97375084  0.78093319  0.74003874     1.59900
O339        O  0.02689493  0.79060421  0.64368510    -0.78000
O340        O  0.95312095  0.74899959  0.77067484    -0.76600
C341        C  0.95216626  0.70987989  0.65586511     0.85900
C342        C  0.05857536  0.69582469  0.69705756     0.85600
O343        O  0.97996287  0.70551713  0.75794333    -0.75600
C344        C  0.03159315  0.79839646  0.77845018     0.86400
O345        O  0.95755353  0.70154811  0.68425525    -0.75700
C346        C  0.05116678  0.80289895  0.65656665     0.86500
C347        C  0.94077474  0.82144176  0.68950582     0.86800
O348        O  0.95585766  0.80772431  0.66750026    -0.78100
C349        C  0.14912033  0.58232025  0.65682510     0.89400
C350        C  0.13081506  0.60688128  0.67586163    -0.50900
C351        C  0.11259207  0.62616104  0.65769010     0.12300
C352        C  0.11424414  0.61898419  0.62188356     0.23200
C353        C  0.12403664  0.56435555  0.63745730    -0.51600
C354        C  0.10567427  0.58374461  0.61875730     0.12400
C355        C  0.16765756  0.60108180  0.63229801    -0.51100
C356        C  0.14957394  0.62001548  0.61391752     0.13000
H357        H  0.13255719  0.60919505  0.70141793     0.17500
H358        H  0.09970517  0.63494555  0.60696042     0.03200
H359        H  0.12162331  0.53894018  0.63820004     0.17800
H360        H  0.19304937  0.59926555  0.62939435     0.17600
C361        C  0.16327025  0.35312198  0.42500910     0.89400
C362        C  0.17887475  0.37314462  0.39940121    -0.50900
C363        C  0.15852335  0.39261068  0.38405313     0.12300
C364        C  0.12409008  0.39026732  0.39587051     0.23200
C365        C  0.14685423  0.37662196  0.44719680    -0.51600
C366        C  0.12596216  0.39626016  0.43209897     0.12400
C367        C  0.13648629  0.33569300  0.40849571    -0.51100
C368        C  0.11583638  0.35501558  0.39349658     0.13000
H369        H  0.20380510  0.37186683  0.39369890     0.17500
H370        H  0.10752255  0.40541380  0.38248065     0.03200
H371        H  0.15062809  0.37697732  0.47263124     0.17800
H372        H  0.13371969  0.31023952  0.40911997     0.17600
C373        C  0.84253660  0.65823871  0.57057373     0.89400
C374        C  0.86215933  0.63302417  0.55323566    -0.50900
C375        C  0.88164902  0.61624248  0.57312654     0.12300
C376        C  0.87877489  0.62598482  0.60819973     0.23200
C377        C  0.82441150  0.64052332  0.59628216    -0.51600
C378        C  0.84329264  0.62367230  0.61608450     0.12400
C379        C  0.86665181  0.67827269  0.58822661    -0.51100
C380        C  0.88561582  0.66142823  0.60767962     0.13000
H381        H  0.86234694  0.63040436  0.52767883     0.17500
H382        H  0.89429500  0.61247879  0.62451039     0.03200
H383        H  0.79897775  0.64166376  0.59896960     0.17800
H384        H  0.86887802  0.70363161  0.58526462     0.17600
C385        C  0.84473325  0.43476473  0.33707257     0.89400
C386        C  0.86989739  0.45349184  0.35572767    -0.50900
C387        C  0.88721886  0.43492233  0.37613449     0.12300
C388        C  0.87808223  0.39980003  0.37502564     0.23200
C389        C  0.86280345  0.40873585  0.32001413    -0.51600
C390        C  0.88032792  0.39038599  0.33974767     0.12400
C391        C  0.82534200  0.41802874  0.36244578    -0.51100
C392        C  0.84272736  0.40011441  0.38241373     0.13000
H393        H  0.87205016  0.47894277  0.35467052     0.17500
H394        H  0.89203274  0.38460983  0.39127547     0.03200
H395        H  0.86172420  0.40503058  0.29458830     0.17800
H396        H  0.79999792  0.42081841  0.36500575     0.17600
C397        C  0.92917308  0.34988104  0.64790649     0.89400
C398        C  0.90325779  0.33189778  0.63028354    -0.50900
C399        C  0.88431103  0.35074635  0.61240768     0.12300
C400        C  0.89299068  0.38595639  0.61378678     0.23200
C401        C  0.94716943  0.36839186  0.62197640    -0.51600
C402        C  0.92793344  0.38759534  0.60397094     0.12400
C403        C  0.91201156  0.37509878  0.66699265    -0.51100
C404        C  0.89335831  0.39407264  0.64918249     0.13000
H405        H  0.90002820  0.30656620  0.63199418     0.17500
H406        H  0.87719459  0.40134890  0.59956433     0.03200
H407        H  0.97246066  0.36674153  0.61883401     0.17800
H408        H  0.91484006  0.37811335  0.69239441     0.17600
C409        C  0.07533364  0.66943731  0.34739935     0.89400
C410        C  0.05702610  0.65063773  0.37263425    -0.50900
C411        C  0.07591452  0.63099889  0.39020367     0.12300
C412        C  0.11106147  0.63270141  0.38108493     0.23200
C413        C  0.10091485  0.68718484  0.36550072    -0.51600
C414        C  0.11965395  0.66797108  0.38316449     0.12400
C415        C  0.09279468  0.64465958  0.32794680    -0.51100
C416        C  0.11133244  0.62539956  0.34552461     0.13000
H417        H  0.03154111  0.65105485  0.37473668     0.17500
H418        H  0.12652224  0.61698106  0.39531572     0.03200
H419        H  0.10413352  0.71254713  0.36424092     0.17800
H420        H  0.09053740  0.64238545  0.30240498     0.17600
O421        O  0.01808150  0.58375485  0.47702341    -0.75600
C422        C  0.93244944  0.55646477  0.52627635     0.85400
O423        O  0.05780663  0.50602455  0.54850311    -0.76700
O424        O  0.95515582  0.45644148  0.53226079    -0.78200
O425        O  0.97212056  0.49765144  0.41991336    -0.78000
O426        O  0.02665330  0.55413707  0.43434382    -0.76600
Zn427      Zn  0.00358811  0.55266657  0.51164785     1.55700
O428        O  0.93838801  0.47743482  0.45500989    -0.78000
Cd429      Cd  0.01076600  0.51012751  0.44784168     1.59700
Cd430      Cd  0.03064720  0.48055696  0.51631906     1.59600
O431        O  0.04632466  0.47823224  0.43778148    -0.78000
O432        O  0.00035117  0.50975316  0.49410928    -1.88500
Cd433      Cd  0.95619694  0.49311166  0.49871176     1.59900
O434        O  0.06040796  0.45720783  0.48413086    -0.78000
O435        O  0.92676534  0.52936971  0.51452193    -0.76600
C436        C  0.05642707  0.53426191  0.55872051     0.85900
C437        C  0.02728081  0.58065736  0.44839286     0.85600
O438        O  0.96048133  0.56739341  0.52807897    -0.75600
C439        C  0.94661127  0.48312814  0.42641356     0.86400
O440        O  0.03649121  0.55404301  0.54761325    -0.75700
C441        C  0.06321109  0.45936965  0.45404676     0.86500
C442        C  0.97668700  0.44132912  0.54714723     0.86800
O443        O  0.00587290  0.44728794  0.54296619    -0.78100
C444        C  0.65801953  0.35682153  0.06798250     0.89400
C445        C  0.63853598  0.38176954  0.04996811    -0.50900
C446        C  0.61814137  0.39812473  0.06918509     0.12300
C447        C  0.61991694  0.38798659  0.10440648     0.23200
C448        C  0.67485182  0.37462564  0.09452039    -0.51600
C449        C  0.65501802  0.39088374  0.11377639     0.12400
C450        C  0.63367279  0.33614307  0.08454395    -0.51100
C451        C  0.61365572  0.35234777  0.10338250     0.13000
H452        H  0.64031511  0.38542988  0.02460642     0.17500
H453        H  0.60361347  0.40096568  0.12027065     0.03200
H454        H  0.70018662  0.37390592  0.09815621     0.17800
H455        H  0.63218416  0.31076377  0.08144138     0.17600
C456        C  0.57413311  0.67170613  0.15185604     0.89400
C457        C  0.60262948  0.68515681  0.13439688    -0.50900
C458        C  0.61754418  0.66362389  0.11590589     0.12300
C459        C  0.60258702  0.63043531  0.11676802     0.23200
C460        C  0.55288443  0.65788383  0.12599825    -0.51600
C461        C  0.56768662  0.63585042  0.10774870     0.12400
C462        C  0.58654544  0.64334199  0.17042248    -0.51100
C463        C  0.60134909  0.62171379  0.15211890     0.13000
H464        H  0.61022243  0.70951961  0.13630159     0.17500
H465        H  0.61501066  0.61288427  0.10184515     0.03200
H466        H  0.52818832  0.66396609  0.12319777     0.17800
H467        H  0.58395993  0.64063912  0.19589740     0.17600
C468        C  0.42698214  0.34846549  0.84588697     0.89400
C469        C  0.44874859  0.36595424  0.86880281    -0.50900
C470        C  0.43359963  0.38734485  0.88759892     0.12300
C471        C  0.39730653  0.38833597  0.88168208     0.23200
C472        C  0.40173451  0.33301231  0.86647398    -0.51600
C473        C  0.38591895  0.35371316  0.88520176     0.12400
C474        C  0.41000647  0.37425577  0.82736216    -0.51100
C475        C  0.39457127  0.39520026  0.84589601     0.13000
H476        H  0.47412329  0.36263311  0.86919714     0.17500
H477        H  0.38379879  0.40516200  0.89635602     0.03200
H478        H  0.39622663  0.30803384  0.86565831     0.17800
H479        H  0.41023033  0.37589512  0.80166034     0.17600
C480        C  0.33582239  0.65785744  0.92686315     0.89400
C481        C  0.31864102  0.63957554  0.90083865    -0.50900
C482        C  0.33791701  0.62066132  0.88350271     0.12300
C483        C  0.37282013  0.62168904  0.89403657     0.23200
C484        C  0.35279738  0.63288551  0.94705647    -0.51600
C485        C  0.37235008  0.61380962  0.92978825     0.12400
C486        C  0.36217310  0.67569790  0.91000095    -0.51100
C487        C  0.38173008  0.65691630  0.89306697     0.13000
H488        H  0.29355138  0.64175865  0.89622511     0.17500
H489        H  0.38872063  0.60642490  0.87991215     0.03200
H490        H  0.34994570  0.63073813  0.97251866     0.17800
H491        H  0.36547635  0.70102630  0.91179131     0.17600
C492        C  0.65329649  0.57732162  0.83912165     0.89400
C493        C  0.62888598  0.55554629  0.85469387    -0.50900
C494        C  0.60875811  0.57066328  0.87503017     0.12300
C495        C  0.61524494  0.60678022  0.87711477     0.23200
C496        C  0.63429222  0.60314133  0.82267374    -0.51600
C497        C  0.61437867  0.61874353  0.84239199     0.12400
C498        C  0.66997791  0.59347603  0.86654956    -0.51100
C499        C  0.65032699  0.60881699  0.88649013     0.13000
H500        H  0.62831089  0.53026861  0.85084004     0.17500
H501        H  0.59967510  0.62031559  0.89309885     0.03200
H502        H  0.63677179  0.60897174  0.79772758     0.17800
H503        H  0.69538955  0.59301515  0.86986309     0.17600
C504        C  0.35086865  0.42891231  0.16308054     0.89400
C505        C  0.36949387  0.40179355  0.17789683    -0.50900
C506        C  0.38545474  0.38422465  0.15627779     0.12300
C507        C  0.38132545  0.39548105  0.12171752     0.23200
C508        C  0.37507594  0.44816993  0.14387919    -0.51600
C509        C  0.39083222  0.43051534  0.12170681     0.12400
C510        C  0.32967428  0.41362351  0.13819406    -0.51100
C511        C  0.34562275  0.39640280  0.11651294     0.13000
H512        H  0.36972483  0.39668761  0.20312020     0.17500
H513        H  0.39410648  0.38098873  0.10401567     0.03200
H514        H  0.37767277  0.47350633  0.14599508     0.17800
H515        H  0.30424393  0.41661542  0.13742790     0.17600
O516        O  0.46163965  0.57935026  0.98631534    -0.75600
C517        C  0.53720498  0.56588660  0.05935489     0.85400
O518        O  0.54427063  0.51745490  0.93821441    -0.76700
O519        O  0.54565644  0.46398762  0.04279992    -0.78200
O520        O  0.43369078  0.48609199  0.04445673    -0.78000
O521        O  0.42505975  0.54174643  0.98515241    -0.76600
Zn522      Zn  0.50276889  0.55680425  0.99659392     1.55700
O523        O  0.47629150  0.48623587  0.07551649    -0.78000
Cd524      Cd  0.45033205  0.50240398  0.00067941     1.59700
Cd525      Cd  0.51987347  0.48590453  0.96892611     1.59600
O526        O  0.44127673  0.46810125  0.96777542    -0.78000
O527        O  0.49668640  0.51142982  0.00226844    -1.88500
Cd528      Cd  0.51260975  0.49956055  0.04528849     1.59900
O529        O  0.48699379  0.45714855  0.94397750    -0.78000
O530        O  0.53586890  0.53669465  0.06592252    -0.76600
C531        C  0.54644450  0.54759774  0.93898693     0.85900
C532        C  0.43344530  0.57033759  0.98119349     0.85600
O533        O  0.52403530  0.57732197  0.03471335    -0.75600
C534        C  0.44696269  0.48144952  0.07124042     0.86400
O535        O  0.53186430  0.56382155  0.95963255    -0.75700
C536        C  0.45718796  0.45306651  0.94727540     0.86500
C537        C  0.56011809  0.45034718  0.02023253     0.86800
O538        O  0.55352771  0.45618993  0.99118653    -0.78100
O539        O  0.30114295  0.47650616  0.67634178    -0.75600
C540        C  0.22189948  0.54338816  0.70640248     0.85400
O541        O  0.35581556  0.54330353  0.72141173    -0.76700
O542        O  0.27897267  0.56256604  0.80116609    -0.78200
O543        O  0.24078560  0.45356143  0.76836318    -0.78000
O544        O  0.30044350  0.43740516  0.71158063    -0.76600
Zn545      Zn  0.28632257  0.51434425  0.70082816     1.55700
O546        O  0.22924221  0.50013354  0.79046678    -0.78000
Cd547      Cd  0.28636812  0.46193673  0.75225502     1.59700
Cd548      Cd  0.33377655  0.52017891  0.75896614     1.59600
O549        O  0.31733988  0.44875658  0.78741344    -0.78000
O550        O  0.29116157  0.50749508  0.74511709    -1.88500
Cd551      Cd  0.25833698  0.53175172  0.76778035     1.59900
O552        O  0.35729027  0.48240242  0.78030025    -0.78000
O553        O  0.22716709  0.55178231  0.73497634    -0.76600
C554        C  0.34309934  0.55533142  0.69672973     0.85900
C555        C  0.30638515  0.44797096  0.68388303     0.85600
O556        O  0.24139501  0.52669597  0.69077452    -0.75600
C557        C  0.22320743  0.47121030  0.78531755     0.86400
O558        O  0.31526800  0.54869773  0.68789042    -0.75700
C559        C  0.34527525  0.45795989  0.79327110     0.86500
C560        C  0.30785750  0.56657698  0.80900424     0.86800
O561        O  0.33031310  0.55247290  0.79507675    -0.78100
C562        C  0.66033271  0.66139917  0.42462021     0.89400
C563        C  0.64199018  0.63654655  0.44388054    -0.50900
C564        C  0.62190756  0.61879143  0.42559993     0.12300
C565        C  0.62259359  0.62771563  0.39014677     0.23200
C566        C  0.67728381  0.64304039  0.39855701    -0.51600
C567        C  0.65752488  0.62536127  0.38049796     0.12400
C568        C  0.63508101  0.68068592  0.40765704    -0.51100
C569        C  0.61524006  0.66312997  0.38982487     0.13000
H570        H  0.64440646  0.63386981  0.46930702     0.17500
H571        H  0.60647165  0.61357566  0.37508888     0.03200
H572        H  0.70256314  0.64403642  0.39464837     0.17800
H573        H  0.63285919  0.70610827  0.40979565     0.17600
C574        C  0.65319378  0.43580272  0.66333451     0.89400
C575        C  0.62982298  0.45804297  0.64690314    -0.50900
C576        C  0.60998936  0.44324495  0.62606678     0.12300
C577        C  0.61554869  0.40707767  0.62438390     0.23200
C578        C  0.63308500  0.41052009  0.67936302    -0.51600
C579        C  0.61341876  0.39529361  0.65903894     0.12400
C580        C  0.67026206  0.41905028  0.63646195    -0.51100
C581        C  0.65071052  0.40417706  0.61603264     0.13000
H582        H  0.62986328  0.48337546  0.65042954     0.17500
H583        H  0.60014269  0.39389078  0.60792382     0.03200
H584        H  0.63488081  0.40456000  0.70433528     0.17800
H585        H  0.69573021  0.41910649  0.63366246     0.17600
C586        C  0.42696773  0.66743469  0.65016204     0.89400
C587        C  0.44481133  0.64926026  0.62422578    -0.50900
C588        C  0.42544471  0.63083564  0.60576306     0.12300
C589        C  0.39027489  0.63323141  0.61499201     0.23200
C590        C  0.40173259  0.68657656  0.63284927    -0.51600
C591        C  0.38234662  0.66875946  0.61453381     0.12400
C592        C  0.40904571  0.64224310  0.66858233    -0.51100
C593        C  0.39009154  0.62426640  0.65025099     0.13000
H594        H  0.47018929  0.65035489  0.62149399     0.17500
H595        H  0.37431159  0.61854257  0.60030477     0.03200
H596        H  0.39894616  0.71187753  0.63546021     0.17800
H597        H  0.41154804  0.63851738  0.69395184     0.17600
C598        C  0.35175912  0.58425876  0.34141562     0.89400
C599        C  0.36876523  0.61016785  0.32297835    -0.50900
C600        C  0.38541218  0.63011071  0.34177806     0.12300
C601        C  0.38340995  0.62226456  0.37751741     0.23200
C602        C  0.37748746  0.56753284  0.36091395    -0.51600
C603        C  0.39392512  0.58762875  0.38029341     0.12400
C604        C  0.33147391  0.60133419  0.36582840    -0.51100
C605        C  0.34802124  0.62094553  0.38484985     0.13000
H606        H  0.36770035  0.61258085  0.29737840     0.17500
H607        H  0.39676759  0.63863998  0.39300401     0.03200
H608        H  0.38071371  0.54216815  0.36111161     0.17800
H609        H  0.30628153  0.59751280  0.36850027     0.17600
C610        C  0.56981328  0.34295516  0.34512428     0.89400
C611        C  0.59650796  0.32743917  0.36378306    -0.50900
C612        C  0.61177799  0.34755366  0.38359683     0.12300
C613        C  0.59897933  0.38165120  0.38278060     0.23200
C614        C  0.54813287  0.35760962  0.37031230    -0.51600
C615        C  0.56329398  0.37831284  0.39002189     0.12400
C616        C  0.58493290  0.37086659  0.32805761    -0.51100
C617        C  0.60021586  0.39110570  0.34754394     0.13000
H618        H  0.60281451  0.30274618  0.36151744     0.17500
H619        H  0.61187475  0.39796778  0.39868497     0.03200
H620        H  0.52303995  0.35285408  0.37177774     0.17800
H621        H  0.58409440  0.37409017  0.30251809     0.17600
C622        C  0.34330667  0.35826139  0.56950762     0.89400
C623        C  0.32615583  0.37675794  0.59522318    -0.50900
C624        C  0.34569031  0.39417930  0.61377789     0.12300
C625        C  0.38094617  0.39146543  0.60470947     0.23200
C626        C  0.36232684  0.38290602  0.55059793    -0.51600
C627        C  0.38255092  0.40015505  0.56919694     0.12400
C628        C  0.36803790  0.33870195  0.58693388    -0.51100
C629        C  0.38782579  0.35597065  0.60505502     0.13000
H630        H  0.30081664  0.37581625  0.59875635     0.17500
H631        H  0.39708402  0.40540011  0.61993855     0.03200
H632        H  0.36168750  0.38474481  0.52496526     0.17800
H633        H  0.37012907  0.31327319  0.58467894     0.17600
O634        O  0.45968737  0.44650621  0.51763165    -0.75600
C635        C  0.53689552  0.44857347  0.44193045     0.85400
O636        O  0.55258778  0.49770498  0.55953380    -0.76700
O637        O  0.55218121  0.55180536  0.45530179    -0.78200
O638        O  0.44264869  0.54275278  0.45880695    -0.78000
O639        O  0.42787123  0.48836916  0.51524708    -0.76600
Zn640      Zn  0.50347919  0.46233647  0.50495871     1.55700
O641        O  0.48148829  0.53092604  0.42525748    -0.78000
Cd642      Cd  0.45823392  0.52500406  0.50228307     1.59700
Cd643      Cd  0.53047279  0.53072679  0.52982493     1.59600
O644        O  0.45543419  0.56054662  0.53662867    -0.78000
O645        O  0.50244568  0.50820046  0.49860977    -1.88500
Cd646      Cd  0.51798620  0.51716016  0.45499688     1.59900
O647        O  0.50391987  0.56209506  0.55710595    -0.78000
O648        O  0.53882930  0.47784918  0.43581293    -0.76600
C649        C  0.55041271  0.46765866  0.56055474     0.85900
C650        C  0.43253486  0.45915761  0.52078531     0.85600
O651        O  0.52172680  0.43837681  0.46607227    -0.75600
C652        C  0.45399697  0.54159942  0.43081824     0.86400
O653        O  0.53270845  0.45250574  0.54155093    -0.75700
C654        C  0.47540668  0.57170502  0.55631729     0.86500
C655        C  0.56876948  0.56450742  0.47696996     0.86800
O656        O  0.56444633  0.55810558  0.50623005    -0.78100
O657        O  0.48029564  0.69840175  0.74406405    -0.75600
C658        C  0.55932487  0.68956488  0.80602847     0.85400
O659        O  0.46525064  0.72707209  0.85970362    -0.76700
O660        O  0.55915700  0.79252664  0.81652496    -0.78200
O661        O  0.50562440  0.79878850  0.73168891    -0.78000
O662        O  0.45590450  0.74285249  0.72951935    -0.76600
Zn663      Zn  0.49227766  0.70742065  0.78920356     1.55700
O664        O  0.55153063  0.77408023  0.73984966    -0.78000
Cd665      Cd  0.47519029  0.77478141  0.76112170     1.59700
Cd666      Cd  0.48765592  0.76490335  0.83655098     1.59600
O667        O  0.44348464  0.80644766  0.78218373    -0.78000
O668        O  0.49956767  0.75133123  0.79348405    -1.88500
Cd669      Cd  0.54491854  0.75765992  0.78610000     1.59900
O670        O  0.45424667  0.80015102  0.83364009    -0.78000
O671        O  0.56996822  0.71683078  0.79892896    -0.76600
C672        C  0.45237204  0.70284820  0.84710065     0.85900
C673        C  0.46442834  0.71453836  0.72419278     0.85600
O674        O  0.53035491  0.68269507  0.80288063    -0.75600
C675        C  0.53383474  0.79247606  0.72368972     0.86400
O676        O  0.45810022  0.69442320  0.81880874    -0.75700
C677        C  0.43944771  0.81375985  0.81125839     0.86500
C678        C  0.55048641  0.79962997  0.84445552     0.86800
O679        O  0.52620588  0.78748981  0.85770399    -0.78100
O680        O  0.24126428  0.98935221  0.19606827    -0.75600
C681        C  0.30358207  0.07103544  0.18753878     0.85400
O682        O  0.35675624  0.97734608  0.22209878    -0.76700
O683        O  0.31715276  0.06811448  0.29237869    -0.78200
O684        O  0.22859346  0.01583016  0.29316976    -0.78000
O685        O  0.23088506  0.96225540  0.24028873    -0.76600
Zn686      Zn  0.28545352  0.00415950  0.20457039     1.55700
O687        O  0.24003735  0.06307703  0.27224728    -0.78000
Cd688      Cd  0.25987471  0.98559998  0.27197111     1.59700
Cd689      Cd  0.33462751  0.99820513  0.26081161     1.59600
O690        O  0.28144260  0.95610152  0.30535062    -0.78000
O691        O  0.29152773  0.01068692  0.24859698    -1.88500
Cd692      Cd  0.28618011  0.05597199  0.25659343     1.59900
O693        O  0.33252631  0.96425933  0.29542878    -0.78000
O694        O  0.29957760  0.08111524  0.21574051    -0.76600
C695        C  0.34361305  0.96544933  0.19765514     0.85900
C696        C  0.22408541  0.97053270  0.21205682     0.85600
O697        O  0.29752320  0.04274299  0.17992120    -0.75600
C698        C  0.22208823  0.04467008  0.28811856     0.86400
O699        O  0.31529714  0.97137188  0.18995652    -0.75700
C700        C  0.31058269  0.95097962  0.31094283     0.86500
C701        C  0.34505547  0.05861909  0.29818023     0.86800
O702        O  0.35734622  0.03503098  0.28409069    -0.78100
O703        O  0.17690582  0.80745409  0.96888775    -0.75600
C704        C  0.20725279  0.73093835  0.03794724     0.85400
O705        O  0.21921765  0.86576814  0.03101064    -0.76700
O706        O  0.29916225  0.78930482  0.05745708    -0.78200
O707        O  0.26758314  0.74474892  0.94943992    -0.78000
O708        O  0.21177359  0.80358412  0.92971719    -0.76600
Zn709      Zn  0.20078191  0.79451012  0.00773515     1.55700
O710        O  0.29192400  0.73710277  0.99589769    -0.78000
Cd711      Cd  0.25176586  0.79066903  0.95546358     1.59700
Cd712      Cd  0.25753341  0.84183969  0.01122296     1.59600
O713        O  0.28693670  0.82040260  0.94087164    -0.78000
O714        O  0.24466256  0.79853899  0.00068910    -1.88500
Cd715      Cd  0.26793724  0.76698655  0.02599485     1.59900
O716        O  0.28067628  0.86212418  0.97257558    -0.78000
O717        O  0.23566810  0.73626098  0.04627423    -0.76600
C718        C  0.19508849  0.85365668  0.04449528     0.85900
C719        C  0.18444056  0.81072813  0.93996017     0.85600
O720        O  0.19131780  0.75020532  0.02121967    -0.75600
C721        C  0.28584023  0.72893231  0.96753175     0.86400
O722        O  0.18724939  0.82500597  0.04073338    -0.75700
C723        C  0.29337059  0.84855726  0.94879326     0.86500
C724        C  0.30557898  0.81851620  0.06117142     0.86800
O725        O  0.29159646  0.84020216  0.04582794    -0.78100
C726        C  0.34530378  0.92909305  0.83812920     0.89400
C727        C  0.36983079  0.94901508  0.85590889    -0.50900
C728        C  0.38868339  0.93156593  0.87562527     0.12300
C729        C  0.38097898  0.89605062  0.87569246     0.23200
C730        C  0.36410760  0.90349495  0.82095360    -0.51600
C731        C  0.38276591  0.88609730  0.84060460     0.12400
C732        C  0.32708961  0.91187771  0.86401079    -0.51100
C733        C  0.34561448  0.89482664  0.88382011     0.13000
H734        H  0.37209865  0.97435330  0.85320484     0.17500
H735        H  0.39605110  0.88184651  0.89182141     0.03200
H736        H  0.36252701  0.89927238  0.79564319     0.17800
H737        H  0.30165723  0.91335908  0.86673465     0.17600
C738        C  0.66104095  0.85043105  0.92428477     0.89400
C739        C  0.67777828  0.87052161  0.89942263    -0.50900
C740        C  0.65814340  0.88996023  0.88299604     0.12300
C741        C  0.62306042  0.88748173  0.89324986     0.23200
C742        C  0.64353191  0.87386575  0.94560229    -0.51600
C743        C  0.62312131  0.89333012  0.92963229     0.12400
C744        C  0.63519854  0.83297318  0.90648713    -0.51100
C745        C  0.61518480  0.85210441  0.89045550     0.13000
H746        H  0.70293985  0.86919634  0.89489388     0.17500
H747        H  0.60712123  0.90277112  0.87923850     0.03200
H748        H  0.64612995  0.87417343  0.97118987     0.17800
H749        H  0.63258481  0.80749199  0.90694565     0.17600
C750        C  0.42361209  0.85148040  0.14967943     0.89400
C751        C  0.39719453  0.83327449  0.13322895    -0.50900
C752        C  0.37821212  0.85175746  0.11506725     0.12300
C753        C  0.38745007  0.88693593  0.11501570     0.23200
C754        C  0.44147125  0.86874591  0.12298310    -0.51600
C755        C  0.42235811  0.88778280  0.10476282     0.12400
C756        C  0.40720392  0.87753295  0.16821808    -0.51100
C757        C  0.38854198  0.89618276  0.15012844     0.13000
H758        H  0.39365511  0.80806109  0.13590544     0.17500
H759        H  0.37168949  0.90211785  0.10052863     0.03200
H760        H  0.46673783  0.86681157  0.11986917     0.17800
H761        H  0.41050239  0.88130557  0.19346180     0.17600
C762        C  0.33881116  0.15769536  0.06937666     0.89400
C763        C  0.35274558  0.13079800  0.04951464    -0.50900
C764        C  0.37231347  0.11134573  0.06640613     0.12300
C765        C  0.37524058  0.12029471  0.10177673     0.23200
C766        C  0.32197368  0.14159935  0.09700547    -0.51600
C767        C  0.34088633  0.12203368  0.11412718     0.12400
C768        C  0.36720323  0.17425688  0.08408577    -0.51100
C769        C  0.38627679  0.15477935  0.10091897     0.13000
H770        H  0.34872813  0.12823994  0.02425940     0.17500
H771        H  0.39084299  0.10447526  0.11572133     0.03200
H772        H  0.29735304  0.14560324  0.10276721     0.17800
H773        H  0.37180781  0.19932366  0.08149637     0.17600
C774        C  0.57502191  0.16882728  0.84771595     0.89400
C775        C  0.55507954  0.15162535  0.87284175    -0.50900
C776        C  0.57249733  0.13187406  0.89178258     0.12300
C777        C  0.60794667  0.13139989  0.88356919     0.23200
C778        C  0.60111456  0.18571335  0.86600889    -0.51600
C779        C  0.61849198  0.16620607  0.88470046     0.12400
C780        C  0.59151893  0.14263729  0.82948691    -0.51100
C781        C  0.60849087  0.12289793  0.84812447     0.13000
H782        H  0.52977755  0.15449816  0.87522393     0.17500
H783        H  0.62217208  0.11533847  0.89868196     0.03200
H784        H  0.60584020  0.21078619  0.86388055     0.17800
H785        H  0.58959531  0.13965353  0.80399219     0.17600
C786        C  0.65379001  0.07610360  0.15216087     0.89400
C787        C  0.63508035  0.10063865  0.17067972    -0.50900
C788        C  0.61811011  0.12044614  0.15198029     0.12300
C789        C  0.62125990  0.11370804  0.11619264     0.23200
C790        C  0.62945840  0.05874381  0.13149851    -0.51600
C791        C  0.61234162  0.07859267  0.11220195     0.12400
C792        C  0.67386995  0.09484889  0.12884103    -0.51100
C793        C  0.65693317  0.11436869  0.10996074     0.13000
H794        H  0.63566368  0.10256562  0.19632950     0.17500
H795        H  0.60765158  0.13010364  0.10086758     0.03200
H796        H  0.62665376  0.03336719  0.13193993     0.17800
H797        H  0.69935555  0.09276515  0.12725308     0.17600
O798        O  0.46110359  0.98329316  0.92830762    -0.75600
C799        C  0.52394634  0.06852441  0.93558793     0.85400
O800        O  0.55629846  0.95189371  0.98266279    -0.76700
O801        O  0.54512413  0.05135844  0.03935884    -0.78200
O802        O  0.43278005  0.03724316  0.02752669    -0.78000
O803        O  0.42595800  0.98510038  0.96744775    -0.76600
Zn804      Zn  0.50194223  0.00030478  0.94726143     1.55700
O805        O  0.47105984  0.07326251  0.02552401    -0.78000
Cd806      Cd  0.45335571  0.99765464  0.00641034     1.59700
Cd807      Cd  0.52794066  0.97616631  0.01546106     1.59600
O808        O  0.45201562  0.95986982  0.03823793    -0.78000
O809        O  0.49827568  0.00603923  0.99313378    -1.88500
Cd810      Cd  0.50970836  0.05049093  0.00508233     1.59900
O811        O  0.50199788  0.94381854  0.04237027    -0.78000
O812        O  0.52513438  0.07529371  0.96503574    -0.76600
C813        C  0.55598430  0.95192085  0.95237035     0.85900
C814        C  0.43318664  0.97923483  0.93876107     0.85600
O815        O  0.51389647  0.04188010  0.92589778    -0.75600
C816        C  0.44313317  0.06493651  0.03309867     0.86400
O817        O  0.53652419  0.96884022  0.93683809    -0.75700
C818        C  0.47284021  0.94110714  0.04939314     0.86500
C819        C  0.56087230  0.02988996  0.05347753     0.86800
O820        O  0.55715702  0.00076549  0.04692040    -0.78100
O821        O  0.97958095  0.80954745  0.25462019    -0.75600
C822        C  0.05985123  0.81687947  0.19261447     0.85400
O823        O  0.96652473  0.78013884  0.13901874    -0.76700
O824        O  0.05803100  0.71307033  0.18375769    -0.78200
O825        O  0.00474039  0.71024238  0.26816903    -0.78000
O826        O  0.95412740  0.76572455  0.26919065    -0.76600
Zn827      Zn  0.99275065  0.79979453  0.20998812     1.55700
O828        O  0.05068885  0.73474719  0.25923541    -0.78000
Cd829      Cd  0.97400185  0.73299107  0.23810240     1.59700
Cd830      Cd  0.98738722  0.74176472  0.16261093     1.59600
O831        O  0.94319915  0.69997157  0.21677309    -0.78000
O832        O  0.99900025  0.75574347  0.20563495    -1.88500
Cd833      Cd  0.04430840  0.74921562  0.21265922     1.59900
O834        O  0.95363078  0.70674446  0.16530751    -0.78000
O835        O  0.07001669  0.78921691  0.19867978    -0.76600
C836        C  0.95445313  0.80492593  0.15130254     0.85900
C837        C  0.96280879  0.79411138  0.27427749     0.85600
O838        O  0.03116762  0.82426965  0.19682849    -0.75600
C839        C  0.03292709  0.71699226  0.27595948     0.86400
O840        O  0.95983834  0.81325521  0.17966516    -0.75700
C841        C  0.93921342  0.69263511  0.18762472     0.86500
C842        C  0.04956359  0.70575302  0.15584158     0.86800
O843        O  0.02574631  0.71826873  0.14209375    -0.78100
O844        O  0.80676513  0.26873047  0.97941118    -0.75600
C845        C  0.81459764  0.20894359  0.05923934     0.85400
O846        O  0.78069453  0.15426438  0.96358912    -0.76700
O847        O  0.71336123  0.19510483  0.05685084    -0.78200
O848        O  0.70655664  0.27990151  0.99940299    -0.78000
O849        O  0.76392504  0.28082701  0.95096443    -0.76600
Zn850      Zn  0.79831345  0.22414367  0.99136331     1.55700
O851        O  0.72816773  0.27252702  0.04727907    -0.78000
Cd852      Cd  0.73150717  0.24986121  0.97074475     1.59700
Cd853      Cd  0.74273806  0.17580097  0.98624586     1.59600
O854        O  0.70016372  0.22697490  0.93979347    -0.78000
O855        O  0.75448764  0.21916168  0.99738798    -1.88500
Cd856      Cd  0.74667495  0.22717025  0.04249870     1.59900
O857        O  0.70651520  0.17655326  0.95382338    -0.78000
O858        O  0.78718304  0.21650622  0.06907329    -0.76600
C859        C  0.80471368  0.16745859  0.95101074     0.85900
C860        C  0.79146010  0.28722487  0.96133064     0.85600
O861        O  0.82213866  0.21106976  0.03021258    -0.75600
C862        C  0.71087072  0.28815341  0.02801696     0.86400
O863        O  0.81267577  0.19563419  0.95712411    -0.75700
C864        C  0.69270499  0.19784538  0.93778827     0.86500
C865        C  0.70939809  0.16639375  0.04919746     0.86800
O866        O  0.72315522  0.15368746  0.02555184    -0.78100
O867        O  0.25769094  0.02518961  0.69541660    -0.75600
C868        C  0.19438054  0.94613530  0.68551106     0.85400
O869        O  0.14179638  0.03921361  0.71842390    -0.76700
O870        O  0.18244535  0.94775544  0.78845106    -0.78200
O871        O  0.26670405  0.99901756  0.79494355    -0.78000
O872        O  0.26891236  0.05105535  0.74015782    -0.76600
Zn873      Zn  0.21278037  0.01268940  0.70264598     1.55700
O874        O  0.25848333  0.95346180  0.76964365    -0.78000
Cd875      Cd  0.23738918  0.03008594  0.77138212     1.59700
Cd876      Cd  0.16288548  0.01752713  0.75771030     1.59600
O877        O  0.21435817  0.06020648  0.80353854    -0.78000
O878        O  0.20638016  0.00602674  0.74644622    -1.88500
Cd879      Cd  0.21291562  0.96090581  0.75351545     1.59900
O880        O  0.16353091  0.05046273  0.79350844    -0.78000
O881        O  0.19966189  0.93573125  0.71334962    -0.76600
C882        C  0.15549664  0.05186910  0.69457535     0.85900
C883        C  0.27582912  0.04239076  0.71206811     0.85600
O884        O  0.19961960  0.97462750  0.67791928    -0.75600
C885        C  0.27451569  0.97081926  0.78831397     0.86400
O886        O  0.18413562  0.04650604  0.68771733    -0.75700
C887        C  0.18500856  0.06438146  0.80914530     0.86500
C888        C  0.15395082  0.95566119  0.79311812     0.86800
O889        O  0.14085676  0.97885952  0.77889418    -0.78100
C890        C  0.16051872  0.15826700  0.92452210     0.89400
C891        C  0.14602206  0.13338189  0.94681508    -0.50900
C892        C  0.12491952  0.11375613  0.93209320     0.12300
C893        C  0.12113138  0.12061214  0.89624676     0.23200
C894        C  0.17552262  0.13945562  0.89765052    -0.51600
C895        C  0.15508801  0.11966255  0.88278212     0.12400
C896        C  0.13244415  0.17515030  0.90952252    -0.51100
C897        C  0.11186183  0.15564607  0.89476832     0.13000
H898        H  0.15121704  0.13200817  0.97195208     0.17500
H899        H  0.10437290  0.10470856  0.88392904     0.03200
H900        H  0.20008149  0.14178129  0.89078218     0.17800
H901        H  0.12932643  0.20056263  0.91009509     0.17600
C902        C  0.15211167  0.93125384  0.16210413     0.89400
C903        C  0.12661291  0.95255575  0.14773540    -0.50900
C904        C  0.10724199  0.93726758  0.12695216     0.12300
C905        C  0.11477441  0.90180108  0.12331816     0.23200
C906        C  0.13429156  0.90405118  0.17772890    -0.51600
C907        C  0.11467808  0.88848802  0.15756473     0.12400
C908        C  0.16910307  0.91670626  0.13383406    -0.51100
C909        C  0.14967601  0.90137902  0.11353698     0.13000
H910        H  0.12483700  0.97761165  0.15251047     0.17500
H911        H  0.09894291  0.88913898  0.10671081     0.03200
H912        H  0.13708404  0.89752858  0.20246828     0.17800
H913        H  0.19441815  0.91825368  0.13022918     0.17600
C914        C  0.92673061  0.16789838  0.15191213     0.89400
C915        C  0.94547831  0.15054210  0.12604273    -0.50900
C916        C  0.92689403  0.13258261  0.10643223     0.12300
C917        C  0.89145928  0.13395703  0.11487812     0.23200
C918        C  0.90168421  0.18703022  0.13424965    -0.51600
C919        C  0.88312968  0.16939220  0.11489901     0.12400
C920        C  0.90863730  0.14206454  0.16926926    -0.51100
C921        C  0.89034779  0.12414601  0.15007811     0.13000
H922        H  0.97088637  0.15215850  0.12364376     0.17500
H923        H  0.87620536  0.11944048  0.09929166     0.03200
H924        H  0.89868173  0.21228573  0.13704465     0.17800
H925        H  0.91028116  0.13811558  0.19466815     0.17600
C926        C  0.83735131  0.85062921  0.07510449     0.89400
C927        C  0.82147634  0.86912722  0.10165616    -0.50900
C928        C  0.84149860  0.88848481  0.11760654     0.12300
C929        C  0.87593192  0.88752175  0.10526304     0.23200
C930        C  0.85291329  0.87543887  0.05370773    -0.51600
C931        C  0.87364277  0.89483301  0.06920412     0.12400
C932        C  0.86466782  0.83325165  0.09072005    -0.51100
C933        C  0.88495166  0.85236108  0.10628044     0.13000
H934        H  0.79667035  0.86685377  0.10757256     0.17500
H935        H  0.89222977  0.90262659  0.11896493     0.03200
H936        H  0.84901557  0.87656513  0.02831877     0.17800
H937        H  0.86798011  0.80789726  0.08923618     0.17600
C938        C  0.07130151  0.84861763  0.84921392     0.89400
C939        C  0.09684243  0.83092946  0.86741297    -0.50900
C940        C  0.11569054  0.85000766  0.88489070     0.12300
C941        C  0.10713641  0.88532519  0.88260023     0.23200
C942        C  0.05298420  0.86757023  0.87425587    -0.51600
C943        C  0.07194112  0.88724438  0.89182187     0.12400
C944        C  0.08861550  0.87329092  0.82955630    -0.51100
C945        C  0.10708736  0.89264642  0.84693553     0.13000
H946        H  0.09997293  0.80554888  0.86633107     0.17500
H947        H  0.12279875  0.90099325  0.89657301     0.03200
H948        H  0.02762080  0.86612748  0.87684636     0.17800
H949        H  0.08608073  0.87564003  0.80402732     0.17600
C950        C  0.84919116  0.08063519  0.84026384     0.89400
C951        C  0.86883634  0.10376149  0.82075341    -0.50900
C952        C  0.88761331  0.12266796  0.83854340     0.12300
C953        C  0.88529125  0.11637530  0.87455243     0.23200
C954        C  0.87300712  0.06191340  0.86055238    -0.51600
C955        C  0.89190375  0.08082619  0.87904237     0.12400
C956        C  0.83119870  0.10085613  0.86398466    -0.51100
C957        C  0.85003626  0.11927230  0.88207375     0.13000
H958        H  0.86727770  0.10571421  0.79513638     0.17500
H959        H  0.90038663  0.13197534  0.88921582     0.03200
H960        H  0.87392709  0.03639149  0.86085589     0.17800
H961        H  0.80576518  0.09997153  0.86693485     0.17600
O962        O  0.97321906  0.07619150  0.02977577    -0.75600
C963        C  0.05516163  0.06395793  0.96427441     0.85400
O964        O  0.93914430  0.00168648  0.94932800    -0.76700
O965        O  0.04244623  0.96119865  0.95543998    -0.78200
O966        O  0.03521846  0.98168495  0.06879336    -0.78000
O967        O  0.98581092  0.04523290  0.07069240    -0.76600
Zn968      Zn  0.98789091  0.05074781  0.99047418     1.55700
O969        O  0.06744883  0.97691930  0.02741349    -0.78000
Cd970      Cd  0.99499467  0.00216966  0.04938644     1.59700
Cd971      Cd  0.96782687  0.97704659  0.98127883     1.59600
O972        O  0.95821178  0.97208296  0.06105268    -0.78000
O973        O  0.99817858  0.00716826  0.00223269    -1.88500
Cd974      Cd  0.04273403  0.99666392  0.98942214     1.59900
O975        O  0.93954059  0.95383073  0.01522376    -0.78000
O976        O  0.06601730  0.03663830  0.97104168    -0.76600
C977        C  0.93729096  0.03081964  0.94193142     0.85900
C978        C  0.97544551  0.07122415  0.05963324     0.85600
O979        O  0.02668527  0.07150587  0.97048168    -0.75600
C980        C  0.06110522  0.97245561  0.05662311     0.86400
O981        O  0.95396991  0.05158538  0.95598757    -0.75700
C982        C  0.93914051  0.95481455  0.04552361     0.86500
C983        C  0.02151550  0.94194416  0.94558013     0.86800
O984        O  0.99274763  0.94395346  0.95428046    -0.78100
O985        O  0.19561649  0.25081395  0.97603664    -0.75600
C986        C  0.18793168  0.30966755  0.05956511     0.85400
O987        O  0.22208061  0.36666914  0.96540938    -0.76700
O988        O  0.28953016  0.32274537  0.05715825    -0.78200
O989        O  0.29542784  0.23877144  0.00122808    -0.78000
O990        O  0.23985435  0.23886425  0.94981876    -0.76600
Zn991      Zn  0.20389569  0.29506493  0.99104240     1.55700
O992        O  0.27247606  0.24645622  0.04832050    -0.78000
Cd993      Cd  0.27191910  0.26956192  0.97136482     1.59700
Cd994      Cd  0.26022444  0.34395569  0.98704117     1.59600
O995        O  0.30466229  0.29338315  0.94185498    -0.78000
O996        O  0.24796905  0.30019362  0.99728361    -1.88500
Cd997      Cd  0.25555287  0.29198987  0.04250397     1.59900
O998        O  0.29674197  0.34384409  0.95472620    -0.78000
O999        O  0.21573794  0.30343697  0.06912708    -0.76600
C1000       C  0.19727637  0.35442130  0.95341860     0.85900
C1001       C  0.21162310  0.23252997  0.95834090     0.85600
O1002       O  0.17994846  0.30639308  0.03073158    -0.75600
C1003       C  0.29004256  0.23054119  0.02976115     0.86400
O1004       O  0.18912094  0.32609070  0.95881010    -0.75700
C1005       C  0.31155610  0.32271025  0.93948869     0.86500
C1006       C  0.29344412  0.35166989  0.05037729     0.86800
O1007       O  0.27983432  0.36510109  0.02695850    -0.78100
O1008       O  0.74511807  0.48918154  0.69598770    -0.75600
C1009       C  0.80581460  0.57022324  0.68720723     0.85400
O1010       O  0.86108518  0.47603161  0.72017569    -0.76700
O1011       O  0.82121540  0.56718373  0.79025108    -0.78200
O1012       O  0.73503327  0.51296921  0.79498149    -0.78000
O1013       O  0.73472809  0.46186681  0.74008342    -0.76600
Zn1014     Zn  0.78978056  0.50272954  0.70359693     1.55700
O1015       O  0.74386566  0.56021655  0.77294634    -0.78000
Cd1016     Cd  0.76531267  0.48362468  0.77127671     1.59700
Cd1017     Cd  0.83964060  0.49778155  0.75875516     1.59600
O1018       O  0.78802211  0.45333990  0.80285433    -0.78000
O1019       O  0.79609282  0.50920987  0.74744848    -1.88500
Cd1020     Cd  0.78945114  0.55414259  0.75586987     1.59900
O1021       O  0.83876263  0.46451029  0.79404081    -0.78000
O1022       O  0.80078062  0.58004607  0.71528150    -0.76600
C1023       C  0.84762108  0.46353196  0.69622536     0.85900
C1024       C  0.72750215  0.47100932  0.71223396     0.85600
O1025       O  0.80153242  0.54165379  0.67941212    -0.75600
C1026       C  0.72733950  0.54149964  0.78989833     0.86400
O1027       O  0.81921403  0.46941066  0.68872151    -0.75700
C1028       C  0.81729300  0.44969333  0.80880593     0.86500
C1029       C  0.84975212  0.55894220  0.79452188     0.86800
O1030       O  0.86230066  0.53573025  0.78004940    -0.78100
O1031       O  0.97096155  0.18449506  0.79587259    -0.75600
C1032       C  0.03953295  0.21544224  0.71969957     0.85400
O1033       O  0.03207252  0.22652939  0.85594403    -0.76700
O1034       O  0.05898931  0.30715812  0.78000607    -0.78200
O1035       O  0.95170121  0.27864436  0.73308002    -0.78000
O1036       O  0.93152567  0.21855477  0.78971675    -0.76600
Zn1037     Zn  0.00972560  0.20855663  0.78384542     1.55700
O1038       O  0.99866614  0.30177478  0.72653687    -0.78000
Cd1039     Cd  0.95709657  0.25956453  0.77867060     1.59700
Cd1040     Cd  0.01241637  0.26479337  0.83152645     1.59600
O1041       O  0.94159485  0.29291094  0.81016147    -0.78000
O1042       O  0.00222985  0.25252345  0.78759362    -1.88500
Cd1043     Cd  0.02792139  0.27622341  0.75640722     1.59900
O1044       O  0.97350995  0.28645326  0.85194972    -0.78000
O1045       O  0.04753818  0.24400063  0.72484607    -0.76600
C1046       C  0.04530697  0.20216605  0.84420207     0.85900
C1047       C  0.94192608  0.19143199  0.79770927     0.85600
O1048       O  0.02350456  0.19932258  0.73942859    -0.75600
C1049       C  0.97024520  0.29712810  0.71797634     0.86400
O1050       O  0.04198083  0.19445053  0.81531327    -0.75700
C1051       C  0.94943891  0.29875395  0.83863111     0.86500
C1052       C  0.06174387  0.31384188  0.80944784     0.86800
O1053       O  0.04606793  0.29973121  0.83086171    -0.78100
C1054       C  0.84415351  0.35670311  0.92414379     0.89400
C1055       C  0.86469595  0.37976793  0.94314313    -0.50900
C1056       C  0.88542966  0.39646987  0.92452032     0.12300
C1057       C  0.88307495  0.38835019  0.88897088     0.23200
C1058       C  0.82773965  0.37663485  0.89894577    -0.51600
C1059       C  0.84808679  0.39316587  0.88048262     0.12400
C1060       C  0.86744726  0.33601956  0.90616257    -0.51100
C1061       C  0.88787754  0.35252839  0.88791953     0.13000
H1062       H  0.86316028  0.38196663  0.96865970     0.17500
H1063       H  0.89963822  0.40166992  0.87358337     0.03200
H1064       H  0.80235108  0.37726736  0.89566412     0.17800
H1065       H  0.86790587  0.31046128  0.90786289     0.17600
C1066       C  0.15179435  0.43141601  0.83579154     0.89400
C1067       C  0.13446925  0.40394702  0.82028631    -0.50900
C1068       C  0.11530031  0.38792290  0.84052906     0.12300
C1069       C  0.11530845  0.40101878  0.87477746     0.23200
C1070       C  0.12587861  0.45215344  0.85028921    -0.51600
C1071       C  0.10688842  0.43632253  0.87117191     0.12400
C1072       C  0.16924222  0.41711779  0.86400044    -0.51100
C1073       C  0.15028382  0.40129262  0.88440532     0.13000
H1074       H  0.13727400  0.39757368  0.79554655     0.17500
H1075       H  0.09986843  0.38788582  0.89144388     0.03200
H1076       H  0.12354142  0.47718221  0.84549059     0.17800
H1077       H  0.19454881  0.41914505  0.86745913     0.17600
C1078       C  0.92881645  0.66891955  0.84887837     0.89400
C1079       C  0.90131325  0.68353615  0.86678411    -0.50900
C1080       C  0.88513725  0.66254992  0.88491117     0.12300
C1081       C  0.89827871  0.62848248  0.88350908     0.23200
C1082       C  0.94949540  0.65329098  0.87419867    -0.51600
C1083       C  0.93363036  0.63165564  0.89220370     0.12400
C1084       C  0.91461247  0.64183914  0.82995908    -0.51100
C1085       C  0.89863825  0.62070918  0.84793089     0.13000
H1086       H  0.89487873  0.70825123  0.86494221     0.17500
H1087       H  0.88508135  0.61121913  0.89820129     0.03200
H1088       H  0.97448275  0.65805357  0.87695944     0.17800
H1089       H  0.91648312  0.63985508  0.80435897     0.17600
C1090       C  0.07787663  0.35040082  0.15442951     0.89400
C1091       C  0.05965754  0.36981414  0.12961196    -0.50900
C1092       C  0.07881101  0.38835733  0.11102737     0.12300
C1093       C  0.11416322  0.38488287  0.11894828     0.23200
C1094       C  0.10199196  0.33124136  0.13572355    -0.51600
C1095       C  0.12106989  0.34917949  0.11710419     0.12400
C1096       C  0.09702644  0.37456447  0.17292148    -0.51100
C1097       C  0.11572740  0.39278070  0.15440955     0.13000
H1098       H  0.03418844  0.36933606  0.12772131     0.17500
H1099       H  0.12991061  0.39967550  0.10406244     0.03200
H1100       H  0.10396269  0.30576648  0.13724227     0.17800
H1101       H  0.09513419  0.37777387  0.19838764     0.17600
C1102       C  0.84425495  0.57817293  0.15889479     0.89400
C1103       C  0.86875032  0.55617276  0.14385836    -0.50900
C1104       C  0.88964863  0.57122869  0.12416075     0.12300
C1105       C  0.88407179  0.60740760  0.12237375     0.23200
C1106       C  0.86329686  0.60346958  0.17617369    -0.51600
C1107       C  0.88416281  0.61894264  0.15717566     0.12400
C1108       C  0.82880828  0.59502552  0.13106158    -0.51100
C1109       C  0.84945313  0.61012601  0.11189226     0.13000
H1110       H  0.86856470  0.53079902  0.14722712     0.17500
H1111       H  0.90042963  0.62081897  0.10700460     0.03200
H1112       H  0.86005692  0.60913452  0.20102774     0.17800
H1113       H  0.80356472  0.59476806  0.12662171     0.17600
C1114       C  0.15959703  0.65694867  0.07552471     0.89400
C1115       C  0.17850418  0.63978655  0.10106715    -0.50900
C1116       C  0.16085054  0.62010832  0.11927838     0.12300
C1117       C  0.12555951  0.61928204  0.11006682     0.23200
C1118       C  0.14322010  0.63103515  0.05619805    -0.51600
C1119       C  0.12519190  0.61114195  0.07439481     0.12400
C1120       C  0.13305762  0.67358398  0.09302633    -0.51100
C1121       C  0.11500944  0.65405625  0.11083136     0.13000
H1122       H  0.20363020  0.64316530  0.10467583     0.17500
H1123       H  0.11094528  0.60338977  0.12496919     0.03200
H1124       H  0.14531117  0.62889628  0.03067545     0.17800
H1125       H  0.12853509  0.69873062  0.09108944     0.17600
O1126       O  0.03821860  0.57442022  0.01429993    -0.75600
C1127       C  0.96899930  0.56054853  0.93677504     0.85400
O1128       O  0.94929604  0.51708246  0.05901759    -0.76700
O1129       O  0.95810265  0.46023071  0.95520680    -0.78200
O1130       O  0.06916395  0.47581469  0.97084967    -0.78000
O1131       O  0.07198462  0.53572310  0.02580648    -0.76600
Zn1132     Zn  0.99681441  0.55281549  0.00343957     1.55700
O1133       O  0.03304197  0.47576131  0.93235426    -0.78000
Cd1134     Cd  0.04734607  0.49582517  0.01028663     1.59700
Cd1135     Cd  0.97363719  0.48476415  0.03038566     1.59600
O1136       O  0.04930063  0.46136430  0.04537721    -0.78000
O1137       O  0.00260300  0.50730505  0.99989502    -1.88500
Cd1138     Cd  0.99310924  0.49426858  0.95511878     1.59900
O1139       O  0.99917471  0.45391953  0.05930014    -0.78000
O1140       O  0.97389104  0.53178918  0.92963820    -0.76600
C1141       C  0.94949081  0.54719879  0.05862387     0.85900
C1142       C  0.06493728  0.56496380  0.02441740     0.85600
O1143       O  0.97741097  0.57174707  0.96348575    -0.75600
C1144       C  0.06068591  0.46937106  0.94257721     0.86400
O1145       O  0.96634372  0.56256490  0.03897180    -0.75700
C1146       C  0.02840095  0.44731865  0.06191100     0.86500
C1147       C  0.93938270  0.44931166  0.97617763     0.86800
O1148       O  0.94143692  0.45718168  0.00527121    -0.78100
O1149       O  0.53164272  0.83199098  0.30025042    -0.75600
C1150       C  0.46363235  0.80211636  0.22174308     0.85400
O1151       O  0.46692501  0.78706776  0.35637338    -0.76700
O1152       O  0.44413858  0.70912096  0.27924421    -0.78200
O1153       O  0.55283935  0.74196840  0.23811389    -0.78000
O1154       O  0.57068921  0.79709097  0.29775006    -0.76600
Zn1155     Zn  0.49350971  0.80769783  0.28589249     1.55700
O1156       O  0.50660310  0.71822859  0.22854903    -0.78000
Cd1157     Cd  0.54562066  0.75709921  0.28401619     1.59700
Cd1158     Cd  0.48897992  0.74994769  0.33326310     1.59600
O1159       O  0.55967696  0.72178634  0.31401538    -0.78000
O1160       O  0.50038595  0.76383601  0.29026081    -1.88500
Cd1161     Cd  0.47557973  0.74119176  0.25793244     1.59900
O1162       O  0.52717686  0.72800259  0.35522324    -0.78000
O1163       O  0.45538222  0.77366065  0.22701880    -0.76600
C1164       C  0.45375187  0.81101236  0.34362393     0.85900
C1165       C  0.56033731  0.82446232  0.30444948     0.85600
O1166       O  0.48054107  0.81773705  0.24108683    -0.75600
C1167       C  0.53515115  0.72422297  0.22144853     0.86400
O1168       O  0.45940842  0.81980271  0.31541462    -0.75700
C1169       C  0.55129346  0.71550812  0.34223404     0.86500
C1170       C  0.44044110  0.70176012  0.30841604     0.86800
O1171       O  0.45562760  0.71510341  0.33055513    -0.78100
O1172       O  0.52123841  0.20387680  0.75630073    -0.78800
C1173       C  0.43946327  0.19611278  0.69736547     0.85400
O1174       O  0.53553373  0.23087849  0.64086242    -0.76700
O1175       O  0.44269912  0.29814723  0.68108200    -0.78200
O1176       O  0.49545505  0.30226155  0.76871436    -0.78000
O1177       O  0.54729534  0.24785650  0.76900176    -0.76600
Zn1178     Zn  0.50730310  0.21237441  0.71185489     1.55700
O1179       O  0.44847731  0.28085066  0.75792568    -0.78000
Cd1180     Cd  0.52594838  0.27978773  0.73835510     1.59700
Cd1181     Cd  0.51352353  0.26909363  0.66300599     1.59600
O1182       O  0.55554064  0.31321437  0.71667290    -0.78000
O1183       O  0.50125566  0.25636456  0.70631166    -1.88500
Cd1184     Cd  0.45602189  0.26411599  0.71265940     1.59900
O1185       O  0.54579449  0.30542075  0.66523898    -0.78000
O1186       O  0.42980200  0.22413941  0.70188048    -0.76600
C1187       C  0.54617512  0.20549541  0.65329018     0.85900
C1188       C  0.53858752  0.21967674  0.77501853     0.85600
O1189       O  0.46811000  0.18839487  0.70119106    -0.75600
C1190       C  0.46658192  0.29746513  0.77524381     0.86400
O1191       O  0.53948688  0.19703976  0.68138128    -0.75700
C1192       C  0.55943903  0.32029632  0.68746924     0.86500
C1193       C  0.45124128  0.30323174  0.65268158     0.86800
O1194       O  0.47518553  0.28992968  0.64015502    -0.78100
O1195       O  0.69813715  0.97638093  0.82126201    -0.75600
C1196       C  0.77596834  0.04392633  0.79056082     0.85400
O1197       O  0.64206482  0.04056881  0.77698564    -0.76700
O1198       O  0.71623900  0.06420498  0.69682119    -0.78200
O1199       O  0.76297936  0.95770369  0.72803922    -0.78000
O1200       O  0.70545709  0.93691542  0.78754179    -0.76600
Zn1201     Zn  0.71218989  0.01448548  0.79658042     1.55700
O1202       O  0.76934906  0.00471556  0.70462735    -0.78000
Cd1203     Cd  0.71723129  0.96247179  0.74629335     1.59700
Cd1204     Cd  0.66480983  0.01780190  0.73930240     1.59600
O1205       O  0.68612646  0.94662800  0.71276605    -0.78000
O1206       O  0.70823594  0.00753635  0.75243218    -1.88500
Cd1207     Cd  0.73923524  0.03376372  0.72927889     1.59900
O1208       O  0.64400380  0.97770886  0.71969980    -0.78000
O1209       O  0.77034604  0.05328437  0.76228515    -0.76600
C1210       C  0.65464693  0.05368638  0.80115020     0.85900
C1211       C  0.69649426  0.94729662  0.81445199     0.85600
O1212       O  0.75675619  0.02681244  0.80611444    -0.75600
C1213       C  0.77815547  0.97650379  0.70980922     0.86400
O1214       O  0.68294237  0.04848650  0.80945419    -0.75700
C1215       C  0.65745503  0.95366794  0.70749440     0.86500
C1216       C  0.68719465  0.06579907  0.68861418     0.86800
O1217       O  0.66586670  0.04969371  0.70228289    -0.78100
C1218       C  0.34872886  0.08113832  0.66419356     0.89400
C1219       C  0.37428565  0.06220807  0.64672780    -0.50900
C1220       C  0.39258080  0.08049889  0.62714196     0.12300
C1221       C  0.38384558  0.11574224  0.62772514     0.23200
C1222       C  0.36629371  0.10699269  0.68204145    -0.51600
C1223       C  0.38464546  0.12518441  0.66296518     0.12400
C1224       C  0.33041556  0.09814434  0.63806875    -0.51100
C1225       C  0.34882358  0.11605075  0.61896750     0.13000
H1226       H  0.37601399  0.03672319  0.64784227     0.17500
H1227       H  0.39866105  0.13074625  0.61209194     0.03200
H1228       H  0.36408011  0.11087030  0.70736447     0.17800
H1229       H  0.30512819  0.09584981  0.63464749     0.17600
C1230       C  0.57620067  0.84265515  0.65347244     0.89400
C1231       C  0.55838683  0.86117046  0.62753789    -0.50900
C1232       C  0.57748344  0.88118486  0.61054397     0.12300
C1233       C  0.61238198  0.88000434  0.62085461     0.23200
C1234       C  0.60268600  0.82539476  0.63624580    -0.51600
C1235       C  0.62171134  0.84482457  0.61913362     0.12400
C1236       C  0.59255653  0.86781205  0.67339906    -0.51100
C1237       C  0.61125809  0.88742818  0.65641105     0.13000
H1238       H  0.53297537  0.86047036  0.62473051     0.17500
H1239       H  0.62801223  0.89599365  0.60713795     0.03200
H1240       H  0.60619765  0.80007599  0.63758301     0.17800
H1241       H  0.58927316  0.87021393  0.69881389     0.17600
C1242       C  0.66096299  0.16081006  0.57378130     0.89400
C1243       C  0.67692934  0.14010031  0.59870132    -0.50900
C1244       C  0.65673408  0.12034989  0.61399759     0.12300
C1245       C  0.62211606  0.12301190  0.60245790     0.23200
C1246       C  0.64417439  0.13809066  0.55115745    -0.51600
C1247       C  0.62335951  0.11818756  0.56588438     0.12400
C1248       C  0.63454000  0.17781365  0.59116253    -0.51100
C1249       C  0.61412736  0.15820487  0.60599000     0.13000
H1250       H  0.70182707  0.14165673  0.60448249     0.17500
H1251       H  0.60560970  0.10762781  0.61564531     0.03200
H1252       H  0.64740371  0.13867157  0.52565682     0.17800
H1253       H  0.63193701  0.20329534  0.59143354     0.17600
C1254       C  0.33995408  0.85783816  0.42616744     0.89400
C1255       C  0.35983717  0.88124434  0.44545758    -0.50900
C1256       C  0.37998489  0.89881989  0.42704353     0.12300
C1257       C  0.37738697  0.89166260  0.39139282     0.23200
C1258       C  0.32255360  0.87760281  0.40150665    -0.51600
C1259       C  0.34209648  0.89530108  0.38321117     0.12400
C1260       C  0.36391186  0.83843974  0.40758691    -0.51100
C1261       C  0.38360591  0.85618115  0.38969859     0.13000
H1262       H  0.35958962  0.88201736  0.47113540     0.17500
H1263       H  0.39343686  0.90590501  0.37628574     0.03200
H1264       H  0.29714771  0.87717174  0.39834797     0.17800
H1265       H  0.36588556  0.81295521  0.40929423     0.17600
C1266       C  0.65088095  0.93714829  0.34472469     0.89400
C1267       C  0.63329930  0.91160846  0.32636875    -0.50900
C1268       C  0.61528023  0.89260416  0.34491076     0.12300
C1269       C  0.61648757  0.90084429  0.38045964     0.23200
C1270       C  0.62509006  0.95520352  0.36329352    -0.51600
C1271       C  0.60694940  0.93589411  0.38237600     0.12400
C1272       C  0.66959908  0.91964986  0.37009671    -0.51100
C1273       C  0.65172427  0.90095998  0.38891903     0.13000
H1274       H  0.63505219  0.90871245  0.30086972     0.17500
H1275       H  0.60217044  0.88495962  0.39567015     0.03200
H1276       H  0.62205482  0.98051961  0.36178303     0.17800
H1277       H  0.69489094  0.92223589  0.37329870     0.17600
C1278       C  0.43114011  0.16361489  0.34636590     0.89400
C1279       C  0.40661121  0.18107149  0.36608046    -0.50900
C1280       C  0.39072594  0.16215776  0.38666587     0.12300
C1281       C  0.40120897  0.12716573  0.38573330     0.23200
C1282       C  0.45295237  0.14740085  0.37029841    -0.51600
C1283       C  0.43763792  0.12791291  0.39115354     0.12400
C1284       C  0.41329722  0.13701545  0.33027106    -0.51100
C1285       C  0.39759186  0.11792301  0.35056430     0.13000
H1286       H  0.40166177  0.20605187  0.36342815     0.17500
H1287       H  0.38752949  0.11182397  0.40191700     0.03200
H1288       H  0.47836534  0.15039613  0.37018538     0.17800
H1289       H  0.41266556  0.13381452  0.30472966     0.17600
O1290       O  0.52005011  0.92929431  0.52285957    -0.75600
C1291       C  0.43221113  0.95173613  0.47937548     0.85400
O1292       O  0.55048735  0.01257798  0.44836953    -0.76700
O1293       O  0.44388725  0.04840384  0.47349362    -0.78200
O1294       O  0.47508626  0.01499856  0.58347038    -0.78000
O1295       O  0.52888015  0.95853681  0.56569693    -0.76600
Zn1296     Zn  0.50357180  0.96050218  0.48886142     1.55700
O1297       O  0.43816929  0.03214743  0.55020244    -0.78000
Cd1298     Cd  0.51136127  0.00215380  0.55254604     1.59700
Cd1299     Cd  0.52261415  0.03582891  0.48225074     1.59600
O1300       O  0.54630695  0.03481398  0.55933476    -0.78000
O1301       O  0.49838656  0.00274991  0.50698142    -1.88500
Cd1302     Cd  0.45295481  0.01450272  0.50706437     1.59900
O1303       O  0.55309851  0.06071596  0.51364312    -0.78000
O1304       O  0.42545225  0.97622928  0.49527679    -0.76600
C1305       C  0.55266493  0.98383245  0.43959514     0.85900
C1306       C  0.52976818  0.93216035  0.55138611     0.85600
O1307       O  0.46070373  0.94418475  0.47299816    -0.75600
C1308       C  0.44887484  0.02867915  0.57817354     0.86400
O1309       O  0.53593103  0.96216261  0.45242704    -0.75700
C1310       C  0.55967769  0.05620053  0.54300044     0.86500
C1311       C  0.46049886  0.06665704  0.45638970     0.86800
O1312       O  0.49073598  0.06606368  0.45733573    -0.78100
C1313       C  0.45608788  0.10838408  0.41433885    -0.13600
C1314       C  0.44278443  0.08819378  0.43491477    -0.28700
H1315       H  0.48162261  0.11010855  0.41372931     0.15500
H1316       H  0.41735065  0.08636040  0.43584427     0.16000
C1317       C  0.58151543  0.94593995  0.40489438    -0.13600
C1318       C  0.57593310  0.97581954  0.41423927    -0.28700
H1319       H  0.56798342  0.92714026  0.41583027     0.15500
H1320       H  0.58973232  0.99490352  0.40424427     0.16000
C1321       C  0.40608985  0.91857140  0.43951281    -0.13600
C1322       C  0.40587413  0.93187434  0.46828564    -0.28700
H1323       H  0.42600502  0.92284050  0.42393377     0.15500
H1324       H  0.38499601  0.93024955  0.48303012     0.16000
C1325       C  0.58279686  0.07600912  0.56029883    -0.13600
C1326       C  0.60180317  0.09755537  0.54694084    -0.28700
H1327       H  0.58413967  0.07199313  0.58557676     0.15500
H1328       H  0.60129243  0.10057467  0.52140548     0.16000
C1329       C  0.56549748  0.90716912  0.59007332    -0.13600
C1330       C  0.54206626  0.90421745  0.56874186    -0.28700
H1331       H  0.57703879  0.92987005  0.59259520     0.15500
H1332       H  0.53212915  0.88117302  0.56382796     0.16000
C1333       C  0.41385106  0.06779648  0.60236626    -0.13600
C1334       C  0.43025306  0.04083568  0.60512076    -0.28700
H1335       H  0.41604664  0.08156034  0.58074829     0.15500
H1336       H  0.43064311  0.02811475  0.62745133     0.16000
C1337       C  0.66740470  0.10102329  0.64038160    -0.10400
C1338       C  0.67752043  0.08572490  0.66247610    -0.12000
C1339       C  0.63998238  0.93311356  0.68718769    -0.10400
C1340       C  0.62717909  0.91331541  0.67139084    -0.12000
C1341       C  0.40244425  0.15136797  0.67526894    -0.10400
C1342       C  0.41803263  0.17246556  0.68619004    -0.12000
C1343       C  0.58732393  0.17082252  0.62243920    -0.10400
C1344       C  0.56725389  0.18589577  0.63566061    -0.12000
C1345       C  0.59680172  0.86732542  0.33142295    -0.10400
C1346       C  0.58109506  0.84734085  0.31853800    -0.12000
C1347       C  0.40982725  0.84232824  0.37366481    -0.10400
C1348       C  0.43089366  0.82840686  0.36097836    -0.12000
C1349       C  0.10550997  0.58522863  0.06132298    -0.13600
C1350       C  0.08791782  0.58898313  0.03503072    -0.28700
H1351       H  0.10281133  0.56399216  0.07545264     0.15500
H1352       H  0.08786236  0.61162956  0.02299709     0.16000
C1353       C  0.92945926  0.56565983  0.08065912    -0.13600
C1354       C  0.91214248  0.55282174  0.10409229    -0.28700
H1355       H  0.92868573  0.59084100  0.07654318     0.15500
H1356       H  0.91323407  0.52748917  0.10777412     0.16000
C1357       C  0.03793505  0.42247684  0.08483575    -0.13600
C1358       C  0.06785217  0.41198107  0.08719634    -0.28700
H1359       H  0.01979377  0.41290829  0.10013957     0.15500
H1360       H  0.08577083  0.42227131  0.07202857     0.16000
C1361       C  0.94995064  0.61224971  0.91643442    -0.13600
C1362       C  0.95209191  0.58077324  0.91359162    -0.28700
H1363       H  0.96252336  0.62425428  0.93526432     0.15500
H1364       H  0.94122587  0.56942024  0.89329709     0.16000
C1365       C  0.08229009  0.45255898  0.89017264    -0.13600
C1366       C  0.08373852  0.45284104  0.92200252    -0.28700
H1367       H  0.06451250  0.46637370  0.87793741     0.15500
H1368       H  0.10335941  0.44106707  0.93359574     0.16000
C1369       C  0.90949586  0.41928309  0.93600927    -0.13600
C1370       C  0.91439501  0.42682267  0.96661473    -0.28700
H1371       H  0.92421966  0.43007138  0.91798685     0.15500
H1372       H  0.89993423  0.41658759  0.98510078     0.16000
C1373       C  0.08223127  0.33905029  0.81949039    -0.10400
C1374       C  0.09730875  0.36093918  0.82985237    -0.12000
C1375       C  0.93006006  0.32001135  0.85616885    -0.10400
C1376       C  0.91187720  0.33668234  0.87010389    -0.12000
C1377       C  0.82701311  0.42874477  0.83359540    -0.10400
C1378       C  0.83706041  0.41253106  0.85475450    -0.12000
C1379       C  0.86821432  0.57697016  0.81633443    -0.10400
C1380       C  0.88218513  0.59505617  0.83317129    -0.12000
C1381       C  0.14553157  0.33514447  0.09780423    -0.10400
C1382       C  0.16515502  0.32253411  0.08135070    -0.12000
C1383       C  0.16331588  0.38579465  0.91177082    -0.10400
C1384       C  0.17812387  0.37254922  0.93217687    -0.12000
C1385       C  0.90587487  0.14773963  0.82414381    -0.10400
C1386       C  0.92098838  0.16813567  0.81102556    -0.12000
C1387       C  0.91462748  0.06971454  0.90381620    -0.13600
C1388       C  0.91528555  0.04029567  0.91606821    -0.28700
H1389       H  0.93040908  0.08732867  0.91356589     0.15500
H1390       H  0.89939330  0.02246929  0.90698782     0.16000
C1391       C  0.82706129  0.06254791  0.82078091    -0.10400
C1392       C  0.80473853  0.05311896  0.80586947    -0.12000
C1393       C  0.06098822  0.91083208  0.91559053    -0.13600
C1394       C  0.03063104  0.91654096  0.92316343    -0.28700
H1395       H  0.07922847  0.92496255  0.92666468     0.15500
H1396       H  0.01192988  0.90260248  0.91273215     0.16000
C1397       C  0.89405540  0.91726280  0.05096265    -0.13600
C1398       C  0.91679051  0.93508083  0.06412878    -0.28700
H1399       H  0.89106914  0.91803954  0.02544133     0.15500
H1400       H  0.91996056  0.93498280  0.08954396     0.16000
C1401       C  0.93908085  0.11235967  0.08022923    -0.13600
C1402       C  0.96603096  0.09577530  0.08278053    -0.28700
H1403       H  0.92373951  0.10820119  0.06008663     0.15500
H1404       H  0.97949355  0.09720855  0.10460786     0.16000
C1405       C  0.08309448  0.95432250  0.10817925    -0.13600
C1406       C  0.08424063  0.95501580  0.07634682    -0.28700
H1407       H  0.06590705  0.96853341  0.12070737     0.15500
H1408       H  0.10312199  0.94259951  0.06430183     0.16000
C1409       C  0.08505319  0.16831533  0.87812270    -0.10400
C1410       C  0.06545829  0.18304005  0.86364325    -0.12000
C1411       C  0.10665706  0.08914746  0.94954430    -0.13600
C1412       C  0.07502527  0.08751091  0.94730934    -0.28700
H1413       H  0.11905040  0.07376544  0.96591205     0.15500
H1414       H  0.06284698  0.10507134  0.93310060     0.16000
C1415       C  0.19701558  0.20378463  0.94786075    -0.10400
C1416       C  0.18211423  0.18120115  0.93900955    -0.12000
C1417       C  0.30482131  0.05270644  0.69827044    -0.10400
C1418       C  0.32716561  0.06313519  0.68422000    -0.12000
C1419       C  0.17514882  0.08471972  0.83463595    -0.10400
C1420       C  0.16523092  0.10041464  0.85636604    -0.12000
C1421       C  0.12349000  0.91819225  0.83197335    -0.10400
C1422       C  0.13632703  0.93703762  0.81505767    -0.12000
C1423       C  0.80643877  0.31583333  0.95190790    -0.10400
C1424       C  0.82228817  0.33718276  0.94215581    -0.12000
C1425       C  0.83756380  0.19604235  0.08088383    -0.10400
C1426       C  0.85784311  0.18345136  0.09661944    -0.12000
C1427       C  0.83720269  0.13713067  0.90779420    -0.10400
C1428       C  0.82312289  0.15053476  0.92843377    -0.12000
C1429       C  0.08070829  0.84053437  0.17963291    -0.10400
C1430       C  0.09614092  0.86181390  0.16836735    -0.12000
C1431       C  0.91861006  0.66686103  0.17889916    -0.10400
C1432       C  0.90304219  0.64503154  0.16893482    -0.12000
C1433       C  0.93312243  0.82406377  0.13337253    -0.10400
C1434       C  0.91253790  0.83932333  0.12110101    -0.12000
C1435       C  0.06847499  0.68299829  0.13951886    -0.10400
C1436       C  0.08809142  0.66653089  0.12726479    -0.12000
C1437       C  0.68863502  0.14788106  0.06830259    -0.10400
C1438       C  0.67227926  0.13316771  0.08626374    -0.12000
C1439       C  0.58853803  0.06858023  0.08807612    -0.13600
C1440       C  0.58413941  0.03859954  0.07837900    -0.28700
H1441       H  0.57484210  0.08719428  0.07701551     0.15500
H1442       H  0.59795916  0.01972663  0.08872192     0.16000
C1443       C  0.63697964  0.07569821  0.81963863    -0.10400
C1444       C  0.62426675  0.09618457  0.83457963    -0.12000
C1445       C  0.66711455  0.18808430  0.91763124    -0.10400
C1446       C  0.64514188  0.17775961  0.90264616    -0.12000
C1447       C  0.55895134  0.11159749  0.91712505    -0.13600
C1448       C  0.53474706  0.09182063  0.91166981    -0.28700
H1449       H  0.57146454  0.11028491  0.93951650     0.15500
H1450       H  0.52459496  0.09070645  0.88807977     0.16000
C1451       C  0.55818963  0.18971831  0.82593166    -0.10400
C1452       C  0.54867656  0.20480090  0.80373026    -0.12000
C1453       C  0.42288131  0.08830313  0.04953513    -0.13600
C1454       C  0.39125176  0.08623003  0.05101814    -0.28700
H1455       H  0.43438477  0.10868954  0.05990530     0.15500
H1456       H  0.37902196  0.06749423  0.03862389     0.16000
C1457       C  0.31890526  0.18026384  0.05229635    -0.10400
C1458       C  0.30478654  0.20242289  0.04142829    -0.12000
C1459       C  0.43307239  0.91032570  0.07971664    -0.13600
C1460       C  0.46338834  0.91570804  0.07181155    -0.28700
H1461       H  0.41484299  0.92436094  0.06842095     0.15500
H1462       H  0.48203952  0.90196448  0.08265907     0.16000
C1463       C  0.44239916  0.83180555  0.17112635    -0.10400
C1464       C  0.45319479  0.81737465  0.19324031    -0.12000
C1465       C  0.68276793  0.92613236  0.83761854    -0.10400
C1466       C  0.67029606  0.90998664  0.85780767    -0.12000
C1467       C  0.60175057  0.91514977  0.94741729    -0.13600
C1468       C  0.57821123  0.93183856  0.93403915    -0.28700
H1469       H  0.60493970  0.91659746  0.97291464     0.15500
H1470       H  0.57457920  0.93080854  0.90866066     0.16000
C1471       C  0.41413787  0.94526605  0.89533033    -0.13600
C1472       C  0.40829785  0.96740079  0.91727889    -0.28700
H1473       H  0.43746124  0.93490146  0.89372487     0.15500
H1474       H  0.38422072  0.97516372  0.92115742     0.16000
C1475       C  0.32374961  0.94659297  0.81749805    -0.10400
C1476       C  0.30216397  0.95811529  0.80302386    -0.12000
C1477       C  0.17850374  0.67967568  0.05775880    -0.10400
C1478       C  0.19247323  0.70227799  0.04781326    -0.12000
C1479       C  0.33032182  0.82805216  0.08241775    -0.10400
C1480       C  0.35177768  0.83886354  0.09777385    -0.12000
C1481       C  0.14135842  0.83716966  0.90331383    -0.10400
C1482       C  0.16158738  0.82445270  0.91888971    -0.12000
C1483       C  0.33183706  0.87827138  0.91012269    -0.10400
C1484       C  0.31541518  0.86540810  0.92946705    -0.12000
C1485       C  0.16213404  0.88581465  0.08606620    -0.10400
C1486       C  0.17645028  0.87229931  0.06559378    -0.12000
C1487       C  0.17445831  0.94706964  0.18312028    -0.10400
C1488       C  0.19629917  0.95808388  0.19751474    -0.12000
C1489       C  0.32887099  0.10539486  0.14162524    -0.10400
C1490       C  0.31685667  0.09128349  0.16347246    -0.12000
C1491       C  0.31976368  0.93024957  0.33623458    -0.10400
C1492       C  0.33012365  0.91436887  0.35756725    -0.12000
C1493       C  0.37292052  0.92292396  0.16361064    -0.10400
C1494       C  0.36056895  0.94362320  0.17845865    -0.12000
C1495       C  0.36327903  0.07566070  0.32115322    -0.10400
C1496       C  0.37835010  0.09293031  0.33801198    -0.12000
C1497       C  0.54606230  0.80730516  0.69566496    -0.10400
C1498       C  0.55738255  0.82202092  0.67399588    -0.12000
C1499       C  0.41814220  0.83884341  0.81968759    -0.10400
C1500       C  0.40185913  0.86025816  0.82910626    -0.12000
C1501       C  0.56946863  0.82199096  0.86132633    -0.10400
C1502       C  0.58869031  0.83867898  0.87397690    -0.12000
C1503       C  0.41351254  0.34111762  0.62138404    -0.10400
C1504       C  0.43250193  0.32460624  0.63449665    -0.12000
C1505       C  0.40849149  0.42018934  0.55660036    -0.13600
C1506       C  0.40563949  0.43955070  0.53151192    -0.28700
H1507       H  0.43063392  0.41981299  0.56952290     0.15500
H1508       H  0.38283328  0.44268078  0.52027088     0.16000
C1509       C  0.54619410  0.39697467  0.41453845    -0.13600
C1510       C  0.55408371  0.42707694  0.42032288    -0.28700
H1511       H  0.52545322  0.38692147  0.42572904     0.15500
H1512       H  0.57300123  0.43760396  0.40657410     0.16000
C1513       C  0.41909792  0.67699792  0.31751554    -0.10400
C1514       C  0.40333056  0.65596739  0.32857310    -0.12000
C1515       C  0.41512872  0.57707355  0.40619977    -0.13600
C1516       C  0.43458666  0.55228991  0.40376093    -0.28700
H1517       H  0.41499558  0.59069781  0.42792962     0.15500
H1518       H  0.43707370  0.54026980  0.38124061     0.16000
C1519       C  0.43622053  0.60806567  0.58103676    -0.13600
C1520       C  0.46578037  0.59647237  0.57928431    -0.28700
H1521       H  0.41836831  0.59889109  0.56510850     0.15500
H1522       H  0.48354259  0.60457965  0.59585529     0.16000
C1523       C  0.44578383  0.68638996  0.67200510    -0.10400
C1524       C  0.45562638  0.70011117  0.69487856    -0.12000
C1525       C  0.59437445  0.36889132  0.66941691    -0.10400
C1526       C  0.57912230  0.34662176  0.67871449    -0.12000
C1527       C  0.58856130  0.46194516  0.60511864    -0.13600
C1528       C  0.56915184  0.44899287  0.58359296    -0.28700
H1529       H  0.58979283  0.48746113  0.60671754     0.15500
H1530       H  0.56717306  0.42362727  0.58190850     0.16000
C1531       C  0.67592219  0.45087818  0.68440612    -0.10400
C1532       C  0.69861802  0.46044846  0.69845885    -0.12000
C1533       C  0.57044757  0.69392920  0.35981873    -0.10400
C1534       C  0.58954817  0.67766289  0.37313033    -0.12000
C1535       C  0.59960527  0.59424913  0.43722835    -0.13600
C1536       C  0.59349747  0.58764670  0.46789489    -0.28700
H1537       H  0.58650318  0.58182957  0.41905376     0.15500
H1538       H  0.60606244  0.59975811  0.48660335     0.16000
C1539       C  0.19563738  0.45819009  0.79982033    -0.10400
C1540       C  0.17384049  0.44741416  0.81451412    -0.12000
C1541       C  0.33334294  0.41256079  0.63986306    -0.10400
C1542       C  0.32070794  0.42773711  0.66051913    -0.12000
C1543       C  0.36017998  0.57777083  0.67830755    -0.10400
C1544       C  0.37318702  0.59827584  0.66367980    -0.12000
C1545       C  0.32967860  0.38181858  0.09044880    -0.10400
C1546       C  0.31369056  0.36940716  0.07059402    -0.12000
C1547       C  0.41038577  0.44381124  0.09567804    -0.13600
C1548       C  0.42796824  0.46996791  0.09826260    -0.28700
H1549       H  0.41093834  0.43079056  0.07356779     0.15500
H1550       H  0.43024818  0.48167209  0.12097236     0.16000
C1551       C  0.59546981  0.64484000  0.83086941    -0.10400
C1552       C  0.58001551  0.66585189  0.81914705    -0.12000
C1553       C  0.58571629  0.55226714  0.89472811    -0.13600
C1554       C  0.56671337  0.56545521  0.91644965    -0.28700
H1555       H  0.58549869  0.52679560  0.89219264     0.15500
H1556       H  0.56669815  0.59080921  0.91924652     0.16000
C1557       C  0.67629761  0.56212785  0.81842565    -0.10400
C1558       C  0.69895183  0.55269881  0.80420632    -0.12000
C1559       C  0.40886541  0.67006132  0.87730741    -0.10400
C1560       C  0.42983870  0.68458419  0.86466766    -0.12000
C1561       C  0.31617409  0.58695656  0.83506050    -0.10400
C1562       C  0.32610454  0.60232484  0.85706076    -0.12000
C1563       C  0.39254301  0.58880558  0.94390666    -0.13600
C1564       C  0.41022480  0.59383284  0.96990449    -0.28700
H1565       H  0.39548610  0.56706743  0.93074161     0.15500
H1566       H  0.41020598  0.61694421  0.98086818     0.16000
C1567       C  0.30078671  0.70119153  0.95543496    -0.10400
C1568       C  0.31539280  0.67960571  0.94422098    -0.12000
C1569       C  0.33750771  0.33296003  0.91970307    -0.10400
C1570       C  0.35945675  0.34330573  0.90445579    -0.12000
C1571       C  0.36362961  0.43951923  0.81507373    -0.10400
C1572       C  0.37753658  0.42096953  0.83165007    -0.12000
C1573       C  0.45223814  0.40893006  0.90845143    -0.13600
C1574       C  0.43912933  0.43092531  0.92700167    -0.28700
H1575       H  0.47775698  0.40683824  0.90812876     0.15500
H1576       H  0.41370534  0.43271898  0.92828056     0.16000
C1577       C  0.44287656  0.32679281  0.82440490    -0.10400
C1578       C  0.45396202  0.31202095  0.80289932    -0.12000
C1579       C  0.55528758  0.58620411  0.08102798    -0.13600
C1580       C  0.55055007  0.61731202  0.08359007    -0.28700
H1581       H  0.57187238  0.57469900  0.09688890     0.15500
H1582       H  0.53195833  0.62862075  0.07002983     0.16000
C1583       C  0.55885084  0.69420155  0.17284324    -0.10400
C1584       C  0.54793732  0.70953531  0.19399953    -0.12000
C1585       C  0.58541571  0.42720132  0.02817582    -0.13600
C1586       C  0.59443685  0.42194843  0.05850268    -0.28700
H1587       H  0.59636680  0.41431630  0.00898178     0.15500
H1588       H  0.58273430  0.43486387  0.07726167     0.16000
C1589       C  0.69495339  0.31587936  0.03885130    -0.10400
C1590       C  0.67935554  0.33714813  0.04931665    -0.12000
C1591       C  0.06379184  0.60542293  0.41088216    -0.13600
C1592       C  0.03917696  0.60838890  0.43070623    -0.28700
H1593       H  0.07619824  0.58306394  0.40987356     0.15500
H1594       H  0.02823750  0.63121558  0.43431407     0.16000
C1595       C  0.05663043  0.68953904  0.32648152    -0.10400
C1596       C  0.04513879  0.70340299  0.30444849    -0.12000
C1597       C  0.87716219  0.42035432  0.66301826    -0.10400
C1598       C  0.86442571  0.44113729  0.67747021    -0.12000
C1599       C  0.93804040  0.40996946  0.57844873    -0.13600
C1600       C  0.96813121  0.41651728  0.57067538    -0.28700
H1601       H  0.91936973  0.42275174  0.56642166     0.15500
H1602       H  0.98721672  0.40444158  0.58270585     0.16000
C1603       C  0.94784101  0.32949871  0.66912728    -0.10400
C1604       C  0.95875407  0.31391569  0.69053621    -0.12000
C1605       C  0.90815154  0.44683894  0.40184589    -0.13600
C1606       C  0.92609770  0.47286735  0.39977573    -0.28700
H1607       H  0.90959292  0.43257557  0.42319164     0.15500
H1608       H  0.92705492  0.48589615  0.37763664     0.16000
C1609       C  0.83037930  0.60633871  0.64255610    -0.10400
C1610       C  0.81835172  0.59127907  0.66363707    -0.12000
C1611       C  0.90773487  0.59543299  0.56215182    -0.13600
C1612       C  0.90546117  0.57591139  0.53721870    -0.28700
H1613       H  0.92942677  0.59573769  0.57580199     0.15500
H1614       H  0.88298806  0.57331801  0.52520295     0.16000
C1615       C  0.10531321  0.41829963  0.45032846    -0.13600
C1616       C  0.08597329  0.43939000  0.43650366    -0.28700
H1617       H  0.10550456  0.41644371  0.47599830     0.15500
H1618       H  0.08612496  0.44215309  0.41100422     0.16000
C1619       C  0.08110844  0.57317271  0.59559386    -0.13600
C1620       C  0.07907987  0.54367125  0.58398450    -0.28700
H1621       H  0.06545995  0.59114578  0.58618868     0.15500
H1622       H  0.09537865  0.52578540  0.59231204     0.16000
C1623       C  0.19322642  0.55331182  0.69099184    -0.10400
C1624       C  0.17090887  0.56357727  0.67642256    -0.12000
C1625       C  0.95346675  0.70650213  0.80573074    -0.10400
C1626       C  0.94453373  0.69112760  0.82784394    -0.12000
C1627       C  0.04284160  0.81312927  0.80664514    -0.10400
C1628       C  0.05305787  0.82806237  0.82850468    -0.12000
C1629       C  0.07924592  0.67225125  0.68392705    -0.10400
C1630       C  0.09451346  0.65163298  0.67147331    -0.12000
C1631       C  0.93035040  0.69148692  0.63816352    -0.10400
C1632       C  0.91059758  0.67636007  0.62473036    -0.12000
C1633       C  0.69640258  0.20619751  0.54950260    -0.10400
C1634       C  0.68207950  0.18359479  0.55887225    -0.12000
C1635       C  0.65836277  0.32618478  0.41971181    -0.10400
C1636       C  0.63753021  0.33686951  0.40335501    -0.12000
C1637       C  0.83637074  0.32882753  0.57848956    -0.10400
C1638       C  0.85818664  0.33842359  0.59418476    -0.12000
C1639       C  0.66326523  0.38784144  0.58908856    -0.10400
C1640       C  0.67784677  0.37446438  0.56872524    -0.12000
C1641       C  0.82834747  0.38522402  0.40923442    -0.10400
C1642       C  0.81234110  0.37317218  0.42932479    -0.12000
C1643       C  0.18054590  0.92587893  0.66209597    -0.10400
C1644       C  0.16787019  0.91109342  0.64129678    -0.12000
C1645       C  0.07057633  0.82358330  0.63846257    -0.10400
C1646       C  0.08904187  0.83979545  0.62438160    -0.12000
C1647       C  0.09308436  0.94172046  0.53674242    -0.13600
C1648       C  0.09062952  0.92091309  0.56070343    -0.28700
H1649       H  0.11574463  0.94521113  0.52532404     0.15500
H1650       H  0.06866181  0.91958859  0.57382176     0.16000
C1651       C  0.12624168  0.09417802  0.65971447    -0.10400
C1652       C  0.13871158  0.07369795  0.67496913    -0.12000
C1653       C  0.06375255  0.10783303  0.57608667    -0.13600
C1654       C  0.03320647  0.10208450  0.56919911    -0.28700
H1655       H  0.08174270  0.09468827  0.56352135     0.15500
H1656       H  0.01476194  0.11462295  0.58165118     0.16000
C1657       C  0.05810230  0.18601742  0.66809158    -0.10400
C1658       C  0.04882334  0.20061849  0.69068275    -0.12000
C1659       C  0.08950310  0.07342097  0.40334510    -0.13600
C1660       C  0.07139021  0.04758304  0.40049182    -0.28700
H1661       H  0.08820499  0.08704782  0.42503865     0.15500
H1662       H  0.07031281  0.03519165  0.37806399     0.16000
C1663       C  0.19364253  0.05673332  0.30169861    -0.10400
C1664       C  0.17183862  0.06753938  0.31630905    -0.12000
C1665       C  0.90525046  0.86904177  0.67064847    -0.10400
C1666       C  0.92065342  0.84726654  0.68066558    -0.12000
C1667       C  0.91619762  0.94841918  0.59589505    -0.13600
C1668       C  0.91820332  0.97785371  0.58395841    -0.28700
H1669       H  0.93187202  0.93044493  0.58667744     0.15500
H1670       H  0.90200245  0.99586729  0.59207373     0.16000
C1671       C  0.82800253  0.95583191  0.67863262    -0.10400
C1672       C  0.80610204  0.96572611  0.69391497    -0.12000
C1673       C  0.91345158  0.07862066  0.43332176    -0.13600
C1674       C  0.89220464  0.09820240  0.44639932    -0.28700
H1675       H  0.91495426  0.07674779  0.40779650     0.15500
H1676       H  0.89056108  0.09910217  0.47205227     0.16000
C1677       C  0.79900780  0.20731128  0.44905861    -0.10400
C1678       C  0.81337150  0.18569703  0.43765248    -0.12000
C1679       C  0.94021850  0.91282539  0.40642549    -0.13600
C1680       C  0.96160363  0.90985030  0.42972977    -0.28700
H1681       H  0.92986047  0.93580939  0.40196948     0.15500
H1682       H  0.96990083  0.88659997  0.43651092     0.16000
C1683       C  0.95322981  0.80969799  0.30290692    -0.10400
C1684       C  0.94378860  0.82532274  0.32479882    -0.12000
C1685       C  0.69634900  0.70398896  0.45257701    -0.10400
C1686       C  0.68128138  0.68222083  0.44241434    -0.12000
C1687       C  0.80792108  0.70057984  0.54048355    -0.10400
C1688       C  0.82245691  0.67863760  0.55120231    -0.12000
C1689       C  0.66864996  0.82093936  0.58526478    -0.10400
C1690       C  0.64800039  0.83257208  0.60113423    -0.12000
C1691       C  0.83480943  0.82946901  0.41680157    -0.10400
C1692       C  0.85609217  0.83928057  0.40052569    -0.12000
C1693       C  0.81893378  0.86806616  0.57154464    -0.10400
C1694       C  0.83461480  0.88226792  0.59044778    -0.12000
C1695       C  0.68074557  0.87134570  0.43537800    -0.10400
C1696       C  0.66563547  0.88443157  0.41514458    -0.12000
C1697       C  0.69466759  0.96396134  0.30848258    -0.10400
C1698       C  0.67249007  0.95520165  0.32424728    -0.12000
C1699       C  0.67383501  0.05681920  0.17265375    -0.10400
C1700       C  0.69472045  0.04624112  0.18877645    -0.12000
C1701       C  0.82757655  0.10644523  0.35319810    -0.10400
C1702       C  0.81594672  0.09075745  0.33228492    -0.12000
C1703       C  0.83053384  0.90736144  0.14405252    -0.10400
C1704       C  0.82026831  0.92329771  0.16549186    -0.12000
C1705       C  0.87677961  0.91881408  0.32907913    -0.10400
C1706       C  0.86391288  0.93995745  0.31523740    -0.12000
C1707       C  0.85858993  0.07916482  0.17905132    -0.10400
C1708       C  0.87235305  0.09840415  0.16315327    -0.12000
C1709       C  0.05883329  0.33120937  0.17598842    -0.10400
C1710       C  0.04750024  0.31675343  0.19775183    -0.12000
C1711       C  0.94502754  0.18704203  0.17426791    -0.10400
C1712       C  0.95598720  0.20190169  0.19597355    -0.12000
C1713       C  0.09920564  0.15713506  0.33199178    -0.10400
C1714       C  0.08266750  0.17813865  0.32215145    -0.12000
C1715       C  0.91542889  0.34434218  0.31604885    -0.10400
C1716       C  0.89917301  0.36465259  0.32768368    -0.12000
C1717       C  0.92830522  0.19149175  0.36137233    -0.10400
C1718       C  0.90869507  0.17530256  0.37409440    -0.12000
C1719       C  0.06675373  0.32855457  0.36583608    -0.10400
C1720       C  0.08815045  0.34242993  0.37837318    -0.12000
C1721       C  0.79686802  0.55373079  0.19200741    -0.10400
C1722       C  0.82012603  0.56294709  0.17848218    -0.12000
C1723       C  0.82348737  0.45246495  0.31613359    -0.10400
C1724       C  0.80096552  0.46228290  0.30168069    -0.12000
C1725       C  0.66669359  0.40810822  0.14103192    -0.10400
C1726       C  0.67788929  0.42312885  0.16266857    -0.12000
C1727       C  0.66880686  0.60616688  0.35468726    -0.10400
C1728       C  0.67772597  0.58935646  0.33348388    -0.12000
C1729       C  0.61497121  0.59380190  0.16587557    -0.10400
C1730       C  0.62743062  0.57277994  0.18044384    -0.12000
C1731       C  0.63124508  0.43663117  0.31862526    -0.10400
C1732       C  0.61714065  0.41761794  0.33451931    -0.12000
C1733       C  0.32255828  0.33724883  0.55161334    -0.10400
C1734       C  0.30808725  0.31462558  0.54239544    -0.12000
C1735       C  0.20081510  0.30967076  0.45017943    -0.10400
C1736       C  0.18503434  0.33101797  0.44014274    -0.12000
C1737       C  0.36519641  0.17462219  0.40572671    -0.10400
C1738       C  0.34447544  0.18721416  0.42082787    -0.12000
C1739       C  0.14675332  0.17751261  0.59304499    -0.10400
C1740       C  0.16874068  0.18800874  0.57818768    -0.12000
C1741       C  0.32251615  0.14560694  0.57093799    -0.10400
C1742       C  0.33592191  0.13238432  0.59220046    -0.12000
C1743       C  0.17262178  0.13403724  0.40976066    -0.10400
C1744       C  0.18975175  0.14619969  0.42881131    -0.12000
C1745       C  0.45556262  0.19708151  0.29944475    -0.10400
C1746       C  0.44656878  0.18340496  0.32269469    -0.12000
C1747       C  0.55479143  0.32168369  0.32230012    -0.10400
C1748       C  0.54538436  0.30664024  0.30001537    -0.12000
C1749       C  0.58443564  0.16620214  0.17805748    -0.10400
C1750       C  0.59996257  0.14593697  0.16544128    -0.12000
C1751       C  0.40389649  0.35710597  0.16558599    -0.10400
C1752       C  0.41982641  0.33508772  0.17415926    -0.12000
C1753       C  0.57054091  0.31895211  0.13294954    -0.10400
C1754       C  0.58883795  0.33627045  0.11989227    -0.12000
C1755       C  0.41385344  0.16675741  0.11659193    -0.10400
C1756       C  0.43480650  0.18058420  0.12983943    -0.12000
C1757       C  0.33198884  0.56425294  0.32151774    -0.10400
C1758       C  0.31063658  0.55229487  0.30717493    -0.12000
C1759       C  0.31043977  0.45735435  0.20134296    -0.10400
C1760       C  0.33161381  0.44644650  0.18582772    -0.12000
C1761       C  0.18844585  0.58766002  0.16546278    -0.10400
C1762       C  0.17498019  0.60239851  0.14496561    -0.12000
C1763       C  0.16929822  0.41291925  0.35872458    -0.10400
C1764       C  0.17994631  0.42935606  0.33789579    -0.12000
C1765       C  0.12886259  0.60033862  0.33100732    -0.10400
C1766       C  0.14297926  0.58125286  0.31548878    -0.12000
C1767       C  0.13243876  0.41900802  0.16764020    -0.10400
C1768       C  0.14512141  0.43984409  0.18203808    -0.12000
C1769       C  0.80238439  0.80603675  0.04860775    -0.10400
C1770       C  0.81649574  0.82829836  0.05908859    -0.12000
C1771       C  0.69629094  0.80600711  0.95121432    -0.10400
C1772       C  0.68180405  0.82804777  0.94058386    -0.12000
C1773       C  0.66614471  0.68094852  0.08053377    -0.10400
C1774       C  0.64443644  0.67225797  0.09683611    -0.12000
C1775       C  0.83618254  0.68416732  0.91724740    -0.10400
C1776       C  0.85777412  0.67261016  0.90263543    -0.12000
C1777       C  0.67999869  0.63925897  0.93158863    -0.10400
C1778       C  0.66324103  0.62572661  0.91300372    -0.12000
C1779       C  0.83824451  0.62615162  0.08412643    -0.10400
C1780       C  0.82353037  0.63907669  0.06350972    -0.12000
C1781       C  0.31929542  0.83706117  0.44419947    -0.10400
C1782       C  0.30443559  0.81517731  0.45431779    -0.12000
C1783       C  0.17746890  0.83863214  0.55120966    -0.10400
C1784       C  0.19300396  0.81697713  0.54143609    -0.12000
C1785       C  0.16660339  0.69039863  0.41769493    -0.10400
C1786       C  0.14546728  0.68017592  0.40163213    -0.12000
C1787       C  0.33477995  0.69501608  0.58312213    -0.10400
C1788       C  0.35592785  0.68255958  0.59775900    -0.12000
C1789       C  0.18048525  0.65160108  0.57035514    -0.10400
C1790       C  0.16372315  0.63805663  0.58888375    -0.12000
C1791       C  0.31845466  0.64871110  0.43202994    -0.10400
C1792       C  0.33319034  0.63644413  0.41109942    -0.12000
loop_ 
_geom_bond_atom_site_label_1 
_geom_bond_atom_site_label_2 
_geom_bond_distance 
_geom_bond_site_symmetry_2 
_ccdc_geom_bond_type 
O1           C17   1.273       .  A
O1           Zn7   1.997       .  S
C2           O18   1.270       .  A
C2           O15   1.279       .  A
C2         C1787   1.443       .  S
O3           C16   1.280       .  A
O3          Cd10   2.092       .  S
O4           C22   1.273       .  A
O4          Cd13   2.055       .  S
O5           C19   1.272       .  A
O5           Cd9   2.050       .  S
O6           C17   1.275       .  A
O6           Cd9   2.068       .  S
Zn7          O18   1.998       .  S
Zn7          O20   1.984       .  S
Zn7          O12   1.888       .  S
O8           C19   1.281       .  A
O8          Cd13   2.097       .  S
Cd9          O11   2.090       .  S
Cd9          O12   1.974       .  S
Cd10         O14   2.053       .  S
Cd10         O23   2.084       .  S
Cd10         O12   1.969       .  S
O11          C21   1.277       .  A
O12         Cd13   1.966       .  S
Cd13         O15   2.108       .  S
O14          C21   1.271       .  A
C16          O20   1.271       .  A
C16        C1791   1.430       .  S
C17        C1782   1.427       .  S
C19        C1784   1.435       .  S
C21        C1785   1.435       .  S
C22          O23   1.279       .  A
C22        C1789   1.431       .  S
O24          C40   1.270       .  A
O24         Zn30   2.004   1_556  S
C25          O41   1.275       .  A
C25          O38   1.276       .  A
C25        C1769   1.433       .  S
O26          C39   1.280       .  A
O26         Cd33   2.094       .  S
O27          C45   1.278       .  A
O27         Cd36   2.095       .  S
O28          C42   1.279       .  A
O28         Cd32   2.086       .  S
O29          C40   1.277       .  A
O29         Cd32   2.100       .  S
Zn30         O41   2.013       .  S
Zn30         O43   1.983       .  S
Zn30         O35   1.900   1_554  S
O31          C42   1.274       .  A
O31         Cd36   2.062   1_556  S
Cd32         O34   2.057       .  S
Cd32         O35   1.966       .  S
Cd33         O37   2.092   1_554  S
Cd33         O46   2.061       .  S
Cd33         O35   1.976   1_554  S
O34          C44   1.273       .  A
O35         Cd36   1.976   1_556  S
Cd36         O38   2.074       .  S
O37          C44   1.279       .  A
C39          O43   1.271       .  A
C39        C1780   1.430       .  S
C40        C1775   1.442       .  S
C42        C1771   1.434       .  S
C44        C1777   1.436       .  S
C45          O46   1.272       .  A
C45        C1773   1.438       .  S
O47          C63   1.271       .  A
O47         Zn53   2.007       .  S
C48          O64   1.274       .  A
C48          O61   1.278       .  A
C48        C1759   1.436       .  S
O49          C62   1.279       .  A
O49         Cd56   2.089       .  S
O50          C68   1.281       .  A
O50         Cd59   2.107       .  S
O51          C65   1.279       .  A
O51         Cd55   2.078       .  S
O52          C63   1.276       .  A
O52         Cd55   2.094       .  S
Zn53         O64   2.008       .  S
Zn53         O66   1.980       .  S
Zn53         O58   1.890       .  S
O54          C65   1.274       .  A
O54         Cd59   2.062       .  S
Cd55         O57   2.052       .  S
Cd55         O58   1.959       .  S
Cd56         O60   2.089       .  S
Cd56         O69   2.056       .  S
Cd56         O58   1.969       .  S
O57          C67   1.273       .  A
O58         Cd59   1.975       .  S
Cd59         O61   2.087       .  S
O60          C67   1.279       .  A
C62          O66   1.270       .  A
C62        C1768   1.429       .  S
C63        C1761   1.442       .  S
C65        C1758   1.431       .  S
C67        C1766   1.432       .  S
C68          O69   1.271       .  A
C68        C1764   1.441       .  S
O70          C86   1.271       .  A
O70         Zn76   2.007       .  S
C71          O87   1.274       .  A
C71          O84   1.275       .  A
C71        C1745   1.428       .  S
O72          C85   1.279       .  A
O72         Cd79   2.092       .  S
O73          C91   1.278       .  A
O73         Cd82   2.092       .  S
O74          C88   1.279       .  A
O74         Cd78   2.090       .  S
O75          C86   1.277       .  A
O75         Cd78   2.094       .  S
Zn76         O87   2.007       .  S
Zn76         O89   1.995       .  S
Zn76         O81   1.898       .  S
O77          C88   1.273       .  A
O77         Cd82   2.061       .  S
Cd78         O80   2.050       .  S
Cd78         O81   1.969       .  S
Cd79         O83   2.084       .  S
Cd79         O92   2.064       .  S
Cd79         O81   1.974       .  S
O80          C90   1.273       .  A
O81         Cd82   1.976       .  S
Cd82         O84   2.066       .  S
O83          C90   1.278       .  A
C85          O89   1.272       .  A
C85        C1756   1.433       .  S
C86        C1749   1.441       .  S
C88        C1748   1.437       .  S
C90        C1753   1.430       .  S
C91          O92   1.272       .  A
C91        C1752   1.440       .  S
O93         C109   1.271       .  A
O93         Zn99   2.014       .  S
C94         O110   1.275       .  A
C94         O107   1.277       .  A
C94        C1734   1.435       .  S
O95         C108   1.278       .  A
O95        Cd102   2.081       .  S
O96         C114   1.280       .  A
O96        Cd105   2.105       .  S
O97         C111   1.279       .  A
O97        Cd101   2.083       .  S
O98         C109   1.278       .  A
O98        Cd101   2.100       .  S
Zn99        O110   2.014       .  S
Zn99        O112   1.988       .  S
Zn99        O104   1.892       .  S
O100        C111   1.273       .  A
O100       Cd105   2.052       .  S
Cd101       O103   2.046       .  S
Cd101       O104   1.962       .  S
Cd102       O106   2.082       .  S
Cd102       O115   2.055       .  S
Cd102       O104   1.968       .  S
O103        C113   1.271       .  A
O104       Cd105   1.976       .  S
Cd105       O107   2.080       .  S
O106        C113   1.278       .  A
C108        O112   1.272       .  A
C108       C1741   1.427       .  S
C109       C1738   1.446       .  S
C111       C1735   1.430       .  S
C113       C1744   1.428       .  S
C114        O115   1.271       .  A
C114       C1740   1.441       .  S
O116        C132   1.275       .  A
O116       Zn122   2.022       .  S
C117        O133   1.271       .  A
C117        O130   1.279       .  A
C117       C1726   1.446       .  S
O118        C131   1.279       .  A
O118       Cd125   2.093       .  S
O119        C137   1.275       .  A
O119       Cd128   2.072       .  S
O120        C134   1.272       .  A
O120       Cd124   2.055       .  S
O121        C132   1.274       .  A
O121       Cd124   2.068       .  S
Zn122       O133   2.008       .  S
Zn122       O135   1.995       .  S
Zn122       O127   1.909       .  S
O123        C134   1.281       .  A
O123       Cd128   2.103       .  S
Cd124       O126   2.092       .  S
Cd124       O127   1.986       .  S
Cd125       O129   2.063       .  S
Cd125       O138   2.090       .  S
Cd125       O127   1.983       .  S
O126        C136   1.277       .  A
O127       Cd128   1.979       .  S
Cd128       O130   2.111       .  S
O129        C136   1.272       .  A
C131        O135   1.272       .  A
C131       C1730   1.434       .  S
C132       C1721   1.435       .  S
C134       C1724   1.438       .  S
C136       C1728   1.439       .  S
C137        O138   1.279       .  A
C137       C1731   1.439       .  S
O139        C155   1.274       .  A
O139       Zn145   2.010       .  S
C140        O156   1.272       .  A
C140        O153   1.277       .  A
C140       C1715   1.442       .  S
O141        C154   1.280       .  A
O141       Cd148   2.096       .  S
O142        C160   1.273       .  A
O142       Cd151   2.053       .  S
O143        C157   1.274       .  A
O143       Cd147   2.068   1_655  S
O144        C155   1.277       .  A
O144       Cd147   2.077       .  S
Zn145       O156   2.009   1_455  S
Zn145       O158   1.993       .  S
Zn145       O150   1.900   1_455  S
O146        C157   1.279       .  A
O146       Cd151   2.088       .  S
Cd147       O149   2.099       .  S
Cd147       O150   1.980   1_455  S
Cd148       O152   2.055       .  S
Cd148       O161   2.092   1_455  S
Cd148       O150   1.979   1_455  S
O149        C159   1.279       .  A
O150       Cd151   1.969       .  S
Cd151       O153   2.098       .  S
O152        C159   1.271       .  A
C154        O158   1.271       .  A
C154       C1719   1.435       .  S
C155       C1710   1.433       .  S
C157       C1712   1.438       .  S
C159       C1714   1.438       .  S
C160        O161   1.279       .  A
C160       C1717   1.434       .  S
O162        C178   1.270       .  A
O162       Zn168   2.001       .  S
C163        O179   1.274       .  A
C163        O176   1.280       .  A
C163       C1697   1.445       .  S
O164        C177   1.279       .  A
O164       Cd171   2.085       .  S
O165        C183   1.283       .  A
O165       Cd174   2.121       .  S
O166        C180   1.281       .  A
O166       Cd170   2.089       .  S
O167        C178   1.280       .  A
O167       Cd170   2.113       .  S
Zn168       O179   2.016   1_545  S
Zn168       O181   1.984   1_545  S
Zn168       O173   1.897       .  S
O169        C180   1.273       .  A
O169       Cd174   2.056   1_545  S
Cd170       O172   2.062       .  S
Cd170       O173   1.969       .  S
Cd171       O175   2.092   1_565  S
Cd171       O184   2.058       .  S
Cd171       O173   1.974   1_565  S
O172        C182   1.273       .  A
O173       Cd174   1.983   1_545  S
Cd174       O176   2.104       .  S
O175        C182   1.279       .  A
C177        O181   1.272       .  A
C177       C1706   1.427       .  S
C178       C1702   1.446       .  S
C180       C1700   1.432       .  S
C182       C1707   1.438       .  S
C183        O184   1.271       .  A
C183       C1704   1.447       .  S
O185        C201   1.273       .  A
O185       Zn191   2.004       .  S
C186        O202   1.270       .  A
C186        O199   1.277       .  A
C186       C1689   1.442       .  S
O187        C200   1.279       .  A
O187       Cd194   2.092       .  S
O188        C206   1.273       .  A
O188       Cd197   2.053       .  S
O189        C203   1.273       .  A
O189       Cd193   2.058       .  S
O190        C201   1.277       .  A
O190       Cd193   2.077       .  S
Zn191       O202   2.004       .  S
Zn191       O204   1.983       .  S
Zn191       O196   1.895       .  S
O192        C203   1.279       .  A
O192       Cd197   2.086       .  S
Cd193       O195   2.100       .  S
Cd193       O196   1.979       .  S
Cd194       O198   2.062       .  S
Cd194       O207   2.085       .  S
Cd194       O196   1.972       .  S
O195        C205   1.279       .  A
O196       Cd197   1.968       .  S
Cd197       O199   2.099       .  S
O198        C205   1.272       .  A
C200        O204   1.270       .  A
C200       C1695   1.430       .  S
C201       C1685   1.432       .  S
C203       C1687   1.433       .  S
C205       C1691   1.440       .  S
C206        O207   1.279       .  A
C206       C1693   1.430       .  S
C208        C209   1.548       .  S
C208        C214   1.530       .  S
C208        C212   1.529       .  S
C208       C1684   1.470       .  S
C209        H216   1.086       .  S
C209        C210   1.377       .  D
C210        C211   1.540       .  S
C210       C1679   1.487       .  S
C211        C215   1.531       .  S
C211        C213   1.544       .  S
C211        H217   1.112       .  S
C212        H218   1.087       .  S
C212        C213   1.360       .  D
C213       C1692   1.446       .  S
C214        H219   1.088       .  S
C214        C215   1.356       .  D
C215       C1705   1.434       .  S
C220        C221   1.527       .  S
C220        C226   1.524       .  S
C220        C224   1.534       .  S
C220       C1678   1.464       .  S
C221        H228   1.087       .  S
C221        C222   1.362       .  D
C222        C223   1.553       .  S
C222       C1701   1.452       .  S
C223        C227   1.542       .  S
C223        C225   1.558       .  S
C223        H229   1.108       .  S
C224        H230   1.086       .  S
C224        C225   1.372       .  D
C225       C1674   1.500       .  S
C226        H231   1.088       .  S
C226        C227   1.356       .  D
C227       C1718   1.440       .  S
C232        C233   1.531       .  S
C232        C238   1.526       .  S
C232        C236   1.547       .  S
C232       C1671   1.470       .  S
C233        H240   1.087       .  S
C233        C234   1.361       .  D
C234        C235   1.541       .  S
C234       C1665   1.445       .  S
C235        C239   1.535       .  S
C235        C237   1.543       .  S
C235        H241   1.111       .  S
C236        H242   1.085       .  S
C236        C237   1.380       .  D
C237       C1667   1.496       .  S
C238        H243   1.088       .  S
C238        C239   1.355       .  D
C239       C1694   1.435       .  S
C244        C245   1.543       .  S
C244        C250   1.526       .  S
C244        C248   1.528       .  S
C244       C1664   1.463       .  S
C245        H252   1.085       .  S
C245        C246   1.376       .  D
C246        C247   1.543       .  S
C246       C1659   1.488       .  S
C247        C251   1.535       .  S
C247        C249   1.546       .  S
C247        H253   1.111       .  S
C248        H254   1.087       .  S
C248        C249   1.361       .  D
C249       C1713   1.445       .  S
C250        H255   1.088       .  S
C250        C251   1.353       .  D
C251       C1743   1.435       .  S
C256        C257   1.529       .  S
C256        C262   1.526       .  S
C256        C260   1.545       .  S
C256       C1657   1.466       .  S
C257        H264   1.087       .  S
C257        C258   1.359       .  D
C258        C259   1.545       .  S
C258       C1739   1.447       .  S
C259        C263   1.538       .  S
C259        C261   1.547       .  S
C259        H265   1.111       .  S
C260        H266   1.084       .  S
C260        C261   1.379       .  D
C261       C1653   1.498       .  S
C262        H267   1.088       .  S
C262        C263   1.354       .  D
C263       C1651   1.437       .  S
C268        C269   1.546       .  S
C268        C274   1.527       .  S
C268        C272   1.526       .  S
C268       C1783   1.465       .  S
C269        H276   1.086       .  S
C269        C270   1.378       .  D
C270        C271   1.544       .  S
C270       C1648   1.492       .  S
C271        C275   1.533       .  S
C271        C273   1.545       .  S
C271        H277   1.111       .  S
C272        H278   1.087       .  S
C272        C273   1.359       .  D
C273       C1644   1.444       .  S
C274        H279   1.088       .  S
C274        C275   1.354       .  D
C275       C1646   1.432       .  S
O280        C296   1.276       .  A
O280       Zn286   2.046   1_455  S
C281        O297   1.278       .  A
C281        O294   1.277       .  A
C281       C1680   1.487       .  S
O282        C295   1.281       .  A
O282       Cd289   2.114       .  S
O283        C301   1.280       .  A
O283       Cd292   2.099       .  S
O284        C298   1.277       .  A
O284       Cd288   2.096   1_565  S
O285        C296   1.277       .  A
O285       Cd288   2.083       .  S
Zn286       O297   2.039   1_545  S
Zn286       O299   2.031       .  S
Zn286       O291   1.959       .  S
O287        C298   1.279       .  A
O287       Cd292   2.099   1_455  S
Cd288       O290   2.091       .  S
Cd288       O291   2.009   1_455  S
Cd289       O293   2.104       .  S
Cd289       O302   2.097       .  S
Cd289       O291   2.021       .  S
O290        C300   1.279       .  A
O291       Cd292   2.018   1_545  S
Cd292       O294   2.098       .  S
O293        C300   1.279   1_655  A
C295        O299   1.275       .  A
C295       C1673   1.491       .  S
C296       C1660   1.484       .  S
C298       C1647   1.489       .  S
C300       C1654   1.492       .  S
C301        O302   1.279   1_565  A
C301       C1668   1.492       .  S
O303        C319   1.272       .  A
O303       Zn309   2.020       .  S
C304        O320   1.275       .  A
C304        O317   1.276       .  A
C304       C1633   1.429       .  S
O305        C318   1.280       .  A
O305       Cd312   2.093       .  S
O306        C324   1.279       .  A
O306       Cd315   2.100       .  S
O307        C321   1.276       .  A
O307       Cd311   2.073       .  S
O308        C319   1.274       .  A
O308       Cd311   2.083       .  S
Zn309       O320   2.007       .  S
Zn309       O322   1.990       .  S
Zn309       O314   1.902       .  S
O310        C321   1.274       .  A
O310       Cd315   2.064       .  S
Cd311       O313   2.037       .  S
Cd311       O314   1.966       .  S
Cd312       O316   2.086       .  S
Cd312       O325   2.067       .  S
Cd312       O314   1.976       .  S
O313        C323   1.271       .  A
O314       Cd315   1.982       .  S
Cd315       O317   2.069       .  S
O316        C323   1.278       .  A
C318        O322   1.271       .  A
C318       C1640   1.432       .  S
C319       C1635   1.442       .  S
C321       C1677   1.432       .  S
C323       C1642   1.426       .  S
C324        O325   1.273       .  A
C324       C1637   1.442       .  S
O326        C342   1.270       .  A
O326       Zn332   2.006   1_455  S
C327        O343   1.273       .  A
C327        O340   1.275       .  A
C327       C1625   1.425       .  S
O328        C341   1.278       .  A
O328       Cd335   2.082       .  S
O329        C347   1.278       .  A
O329       Cd338   2.093       .  S
O330        C344   1.279       .  A
O330       Cd334   2.086       .  S
O331        C342   1.277       .  A
O331       Cd334   2.100       .  S
Zn332       O343   1.993       .  S
Zn332       O345   1.976       .  S
Zn332       O337   1.886       .  S
O333        C344   1.271       .  A
O333       Cd338   2.045   1_455  S
Cd334       O336   2.049       .  S
Cd334       O337   1.962   1_455  S
Cd335       O339   2.073   1_655  S
Cd335       O348   2.061       .  S
Cd335       O337   1.963       .  S
O336        C346   1.273       .  A
O337       Cd338   1.974       .  S
Cd338       O340   2.067       .  S
O339        C346   1.277       .  A
C341        O345   1.270       .  A
C341       C1631   1.425       .  S
C342       C1629   1.444       .  S
C344       C1627   1.429       .  S
C346       C1645   1.425       .  S
C347        O348   1.272       .  A
C347       C1666   1.439       .  S
C349        C350   1.531       .  S
C349        C355   1.524       .  S
C349        C353   1.545       .  S
C349       C1624   1.473       .  S
C350        H357   1.087       .  S
C350        C351   1.362       .  D
C351        C352   1.545       .  S
C351       C1630   1.450       .  S
C352        C356   1.538       .  S
C352        C354   1.546       .  S
C352        H358   1.111       .  S
C353        H359   1.085       .  S
C353        C354   1.380       .  D
C354       C1619   1.499       .  S
C355        H360   1.088       .  S
C355        C356   1.355       .  D
C356       C1790   1.436       .  S
C361        C362   1.526       .  S
C361        C367   1.526       .  S
C361        C365   1.538       .  S
C361       C1736   1.463       .  S
C362        H369   1.087       .  S
C362        C363   1.359       .  D
C363        C364   1.548       .  S
C363       C1763   1.447       .  S
C364        C368   1.541       .  S
C364        C366   1.554       .  S
C364        H370   1.107       .  S
C365        H371   1.086       .  S
C365        C366   1.373       .  D
C366       C1615   1.498       .  S
C367        H372   1.088       .  S
C367        C368   1.357       .  D
C368       C1720   1.441       .  S
C373        C374   1.544       .  S
C373        C379   1.527       .  S
C373        C377   1.528       .  S
C373       C1688   1.464       .  S
C374        H381   1.086       .  S
C374        C375   1.376       .  D
C375        C376   1.544       .  S
C375       C1611   1.492       .  S
C376        C380   1.533       .  S
C376        C378   1.546       .  S
C376        H382   1.111       .  S
C377        H383   1.087       .  S
C377        C378   1.360       .  D
C378       C1609   1.445       .  S
C379        H384   1.088       .  S
C379        C380   1.353       .  D
C380       C1632   1.431       .  S
C385        C386   1.548       .  S
C385        C391   1.526       .  S
C385        C389   1.528       .  S
C385       C1723   1.469       .  S
C386        H393   1.085       .  S
C386        C387   1.379       .  D
C387        C388   1.542       .  S
C387       C1605   1.492       .  S
C388        C392   1.533       .  S
C388        C390   1.547       .  S
C388        H394   1.111       .  S
C389        H395   1.087       .  S
C389        C390   1.361       .  D
C390       C1716   1.448       .  S
C391        H396   1.088       .  S
C391        C392   1.353       .  D
C392       C1641   1.433       .  S
C397        C398   1.533       .  S
C397        C403   1.528       .  S
C397        C401   1.548       .  S
C397       C1603   1.475       .  S
C398        H405   1.087       .  S
C398        C399   1.362       .  D
C399        C400   1.541       .  S
C399       C1638   1.448       .  S
C400        C404   1.535       .  S
C400        C402   1.542       .  S
C400        H406   1.112       .  S
C401        H407   1.084       .  S
C401        C402   1.381       .  D
C402       C1599   1.498       .  S
C403        H408   1.088       .  S
C403        C404   1.356       .  D
C404       C1597   1.437       .  S
C409        C410   1.541       .  S
C409        C415   1.529       .  S
C409        C413   1.528       .  S
C409       C1595   1.461       .  S
C410        H417   1.086       .  S
C410        C411   1.373       .  D
C411        C412   1.543       .  S
C411       C1591   1.484       .  S
C412        C416   1.535       .  S
C412        C414   1.544       .  S
C412        H418   1.111       .  S
C413        H419   1.087       .  S
C413        C414   1.361       .  D
C414       C1786   1.442       .  S
C415        H420   1.088       .  S
C415        C416   1.355       .  D
C416       C1765   1.438       .  S
O421        C437   1.278       .  A
O421       Zn427   2.062       .  S
C422        O438   1.280       .  A
C422        O435   1.277       .  A
C422       C1612   1.487       .  S
O423        C436   1.277       .  A
O423       Cd430   2.087       .  S
O424        C442   1.281       .  A
O424       Cd433   2.103       .  S
O425        C439   1.276       .  A
O425       Cd429   2.089   1_655  S
O426        C437   1.275       .  A
O426       Cd429   2.066       .  S
Zn427       O438   2.056   1_455  S
Zn427       O440   2.064       .  S
Zn427       O432   1.974       .  S
O428        C439   1.280       .  A
O428       Cd433   2.104       .  S
Cd429       O431   2.073       .  S
Cd429       O432   2.004       .  S
Cd430       O434   2.107       .  S
Cd430       O443   2.088       .  S
Cd430       O432   2.016       .  S
O431        C441   1.274       .  A
O432       Cd433   2.013   1_455  S
Cd433       O435   2.094       .  S
O434        C441   1.279       .  A
C436        O440   1.281       .  A
C436       C1620   1.492       .  S
C437       C1592   1.482       .  S
C439       C1606   1.489       .  S
C441       C1616   1.486       .  S
C442        O443   1.277   1_655  A
C442       C1600   1.491       .  S
C444        C445   1.543       .  S
C444        C450   1.525       .  S
C444        C448   1.531       .  S
C444       C1590   1.465       .  S
C445        H452   1.085       .  S
C445        C446   1.377       .  D
C446        C447   1.549       .  S
C446       C1586   1.496       .  S
C447        C451   1.537       .  S
C447        C449   1.547       .  S
C447        H453   1.111       .  S
C448        H454   1.087       .  S
C448        C449   1.361       .  D
C449       C1725   1.453       .  S
C450        H455   1.088       .  S
C450        C451   1.354       .  D
C451       C1754   1.435       .  S
C456        C457   1.527       .  S
C456        C462   1.529       .  S
C456        C460   1.534       .  S
C456       C1583   1.458       .  S
C457        H464   1.087       .  S
C457        C458   1.361       .  D
C458        C459   1.546       .  S
C458       C1774   1.444       .  S
C459        C463   1.538       .  S
C459        C461   1.547       .  S
C459        H465   1.111       .  S
C460        H466   1.086       .  S
C460        C461   1.367       .  D
C461       C1580   1.481       .  S
C462        H467   1.087       .  S
C462        C463   1.357       .  D
C463       C1729   1.440       .  S
C468        C469   1.531       .  S
C468        C474   1.525       .  S
C468        C472   1.528       .  S
C468       C1577   1.460       .  S
C469        H476   1.087       .  S
C469        C470   1.369       .  D
C470        C471   1.561       .  S
C470       C1573   1.499       .  S
C471        C475   1.543       .  S
C471        C473   1.554       .  S
C471        H477   1.108       .  S
C472        H478   1.087       .  S
C472        C473   1.362       .  D
C473       C1570   1.455       .  S
C474        H479   1.088       .  S
C474        C475   1.356       .  D
C475       C1572   1.442       .  S
C480        C481   1.532       .  S
C480        C486   1.527       .  S
C480        C484   1.538       .  S
C480       C1568   1.466       .  S
C481        H488   1.087       .  S
C481        C482   1.362       .  D
C482        C483   1.548       .  S
C482       C1562   1.452       .  S
C483        C487   1.543       .  S
C483        C485   1.546       .  S
C483        H489   1.111       .  S
C484        H490   1.086       .  S
C484        C485   1.372       .  D
C485       C1563   1.488       .  S
C486        H491   1.088       .  S
C486        C487   1.357       .  D
C487       C1559   1.442       .  S
C492        C493   1.536       .  S
C492        C498   1.522       .  S
C492        C496   1.527       .  S
C492       C1557   1.462       .  S
C493        H500   1.086       .  S
C493        C494   1.373       .  D
C494        C495   1.561       .  S
C494       C1553   1.502       .  S
C495        C499   1.543       .  S
C495        C497   1.551       .  S
C495        H501   1.107       .  S
C496        H502   1.087       .  S
C496        C497   1.361       .  D
C497       C1551   1.451       .  S
C498        H503   1.088       .  S
C498        C499   1.354       .  D
C499       C1778   1.440       .  S
C504        C505   1.529       .  S
C504        C510   1.529       .  S
C504        C508   1.543       .  S
C504       C1760   1.467       .  S
C505        H512   1.087       .  S
C505        C506   1.362       .  D
C506        C507   1.545       .  S
C506       C1751   1.446       .  S
C507        C511   1.532       .  S
C507        C509   1.541       .  S
C507        H513   1.112       .  S
C508        H514   1.086       .  S
C508        C509   1.375       .  D
C509       C1547   1.488       .  S
C510        H515   1.088       .  S
C510        C511   1.355       .  D
C511       C1545   1.434       .  S
O516        C532   1.275       .  A
O516       Zn522   2.038       .  S
C517        O533   1.276       .  A
C517        O530   1.271       .  A
C517       C1579   1.475       .  S
O518        C531   1.284       .  A
O518       Cd525   2.131       .  S
O519        C537   1.275       .  A
O519       Cd528   2.065       .  S
O520        C534   1.278       .  A
O520       Cd524   2.096       .  S
O521        C532   1.276       .  A
O521       Cd524   2.090   1_556  S
Zn522       O533   2.043   1_556  S
Zn522       O535   2.013       .  S
Zn522       O527   1.958   1_556  S
O523        C534   1.274       .  A
O523       Cd528   2.080       .  S
Cd524       O526   2.052   1_554  S
Cd524       O527   2.006       .  S
Cd525       O529   2.134       .  S
Cd525       O538   2.124       .  S
Cd525       O527   2.034   1_556  S
O526        C536   1.272       .  A
O527       Cd528   2.002       .  S
Cd528       O530   2.056       .  S
O529        C536   1.285       .  A
C531        O535   1.274       .  A
C531       C1554   1.489       .  S
C532       C1564   1.481       .  S
C534       C1548   1.479       .  S
C536       C1574   1.486       .  S
C537        O538   1.282   1_554  A
C537       C1585   1.493       .  S
O539        C555   1.272       .  A
O539       Zn545   2.015       .  S
C540        O556   1.276       .  A
C540        O553   1.279       .  A
C540       C1623   1.443       .  S
O541        C554   1.279       .  A
O541       Cd548   2.085       .  S
O542        C560   1.282       .  A
O542       Cd551   2.116       .  S
O543        C557   1.279       .  A
O543       Cd547   2.082       .  S
O544        C555   1.277       .  A
O544       Cd547   2.099       .  S
Zn545       O556   2.023       .  S
Zn545       O558   1.983       .  S
Zn545       O550   1.903       .  S
O546        C557   1.274       .  A
O546       Cd551   2.059       .  S
Cd547       O549   2.059       .  S
Cd547       O550   1.968       .  S
Cd548       O552   2.091       .  S
Cd548       O561   2.059       .  S
Cd548       O550   1.976       .  S
O549        C559   1.273       .  A
O550       Cd551   1.982       .  S
Cd551       O553   2.094       .  S
O552        C559   1.279       .  A
C554        O558   1.271       .  A
C554       C1543   1.427       .  S
C555       C1542   1.445       .  S
C557       C1539   1.432       .  S
C559       C1571   1.437       .  S
C560        O561   1.271       .  A
C560       C1561   1.446       .  S
C562        C563   1.542       .  S
C562        C568   1.526       .  S
C562        C566   1.531       .  S
C562       C1686   1.463       .  S
C563        H570   1.085       .  S
C563        C564   1.376       .  D
C564        C565   1.544       .  S
C564       C1535   1.490       .  S
C565        C569   1.536       .  S
C565        C567   1.542       .  S
C565        H571   1.111       .  S
C566        H572   1.087       .  S
C566        C567   1.361       .  D
C567       C1727   1.445       .  S
C568        H573   1.088       .  S
C568        C569   1.355       .  D
C569       C1534   1.437       .  S
C574        C575   1.534       .  S
C574        C580   1.525       .  S
C574        C578   1.528       .  S
C574       C1531   1.461       .  S
C575        H582   1.086       .  S
C575        C576   1.371       .  D
C576        C577   1.556       .  S
C576       C1527   1.496       .  S
C577        C581   1.539       .  S
C577        C579   1.548       .  S
C577        H583   1.107       .  S
C578        H584   1.087       .  S
C578        C579   1.362       .  D
C579       C1525   1.449       .  S
C580        H585   1.088       .  S
C580        C581   1.355       .  D
C581       C1639   1.437       .  S
C586        C587   1.541       .  S
C586        C592   1.525       .  S
C586        C590   1.530       .  S
C586       C1523   1.463       .  S
C587        H594   1.085       .  S
C587        C588   1.378       .  D
C588        C589   1.547       .  S
C588       C1519   1.497       .  S
C589        C593   1.536       .  S
C589        C591   1.546       .  S
C589        H595   1.111       .  S
C590        H596   1.087       .  S
C590        C591   1.360       .  D
C591       C1788   1.449       .  S
C592        H597   1.088       .  S
C592        C593   1.354       .  D
C593       C1544   1.432       .  S
C598        C599   1.528       .  S
C598        C604   1.529       .  S
C598        C602   1.540       .  S
C598       C1757   1.461       .  S
C599        H606   1.087       .  S
C599        C600   1.360       .  D
C600        C601   1.547       .  S
C600       C1514   1.446       .  S
C601        C605   1.535       .  S
C601        C603   1.541       .  S
C601        H607   1.111       .  S
C602        H608   1.086       .  S
C602        C603   1.374       .  D
C603       C1515   1.485       .  S
C604        H609   1.088       .  S
C604        C605   1.355       .  D
C605       C1792   1.437       .  S
C610        C611   1.528       .  S
C610        C616   1.527       .  S
C610        C614   1.540       .  S
C610       C1747   1.468       .  S
C611        H618   1.087       .  S
C611        C612   1.362       .  D
C612        C613   1.547       .  S
C612       C1636   1.447       .  S
C613        C617   1.541       .  S
C613        C615   1.552       .  S
C613        H619   1.111       .  S
C614        H620   1.086       .  S
C614        C615   1.373       .  D
C615       C1509   1.494       .  S
C616        H621   1.088       .  S
C616        C617   1.357       .  D
C617       C1732   1.443       .  S
C622        C623   1.527       .  S
C622        C628   1.527       .  S
C622        C626   1.543       .  S
C622       C1733   1.465       .  S
C623        H630   1.087       .  S
C623        C624   1.361       .  D
C624        C625   1.550       .  S
C624       C1541   1.451       .  S
C625        C629   1.535       .  S
C625        C627   1.545       .  S
C625        H631   1.111       .  S
C626        H632   1.086       .  S
C626        C627   1.376       .  D
C627       C1505   1.489       .  S
C628        H633   1.088       .  S
C628        C629   1.353       .  D
C629       C1503   1.435       .  S
O634        C650   1.279       .  A
O634       Zn640   2.048       .  S
C635        O651   1.281       .  A
C635        O648   1.272       .  A
C635       C1510   1.485       .  S
O636        C649   1.280       .  A
O636       Cd643   2.101       .  S
O637        C655   1.275       .  A
O637       Cd646   2.067       .  S
O638        C652   1.278       .  A
O638       Cd642   2.090       .  S
O639        C650   1.277       .  A
O639       Cd642   2.092       .  S
Zn640       O651   2.084       .  S
Zn640       O653   2.024       .  S
Zn640       O645   1.966       .  S
O641        C652   1.274       .  A
O641       Cd646   2.077       .  S
Cd642       O644   2.100       .  S
Cd642       O645   2.014       .  S
Cd643       O647   2.094       .  S
Cd643       O656   2.102       .  S
Cd643       O645   2.019       .  S
O644        C654   1.279       .  A
O645       Cd646   1.993       .  S
Cd646       O648   2.058       .  S
O647        C654   1.278       .  A
C649        O653   1.275       .  A
C649       C1528   1.484       .  S
C650       C1506   1.483       .  S
C652       C1516   1.479       .  S
C654       C1520   1.490       .  S
C655        O656   1.278       .  A
C655       C1536   1.487       .  S
O657        C673   1.274       .  A
O657       Zn663   2.011       .  S
C658        O674   1.271       .  A
C658        O671   1.278       .  A
C658       C1552   1.445       .  S
O659        C672   1.282       .  A
O659       Cd666   2.106       .  S
O660        C678   1.273       .  A
O660       Cd669   2.054       .  S
O661        C675   1.273       .  A
O661       Cd665   2.061       .  S
O662        C673   1.276       .  A
O662       Cd665   2.074       .  S
Zn663       O674   2.011       .  S
Zn663       O676   1.993       .  S
Zn663       O668   1.899       .  S
O664        C675   1.280       .  A
O664       Cd669   2.092       .  S
Cd665       O667   2.103       .  S
Cd665       O668   1.981       .  S
Cd666       O670   2.066       .  S
Cd666       O679   2.098       .  S
Cd666       O668   1.976       .  S
O667        C677   1.279       .  A
O668       Cd669   1.969       .  S
Cd669       O671   2.104       .  S
O670        C677   1.272       .  A
C672        O676   1.272       .  A
C672       C1560   1.437       .  S
C673       C1524   1.433       .  S
C675       C1497   1.437       .  S
C677       C1499   1.443       .  S
C678        O679   1.281       .  A
C678       C1501   1.436       .  S
O680        C696   1.274       .  A
O680       Zn686   2.011   1_565  S
C681        O697   1.271       .  A
C681        O694   1.278       .  A
C681       C1490   1.444       .  S
O682        C695   1.279       .  A
O682       Cd689   2.086       .  S
O683        C701   1.275       .  A
O683       Cd692   2.069       .  S
O684        C698   1.273       .  A
O684       Cd688   2.055   1_545  S
O685        C696   1.275       .  A
O685       Cd688   2.072       .  S
Zn686       O697   2.005       .  S
Zn686       O699   1.983   1_545  S
Zn686       O691   1.899       .  S
O687        C698   1.280       .  A
O687       Cd692   2.090       .  S
Cd688       O690   2.094       .  S
Cd688       O691   1.978   1_565  S
Cd689       O693   2.052       .  S
Cd689       O702   2.086   1_565  S
Cd689       O691   1.973   1_565  S
O690        C700   1.278       .  A
O691       Cd692   1.967       .  S
Cd692       O694   2.105       .  S
O693        C700   1.270       .  A
C695        O699   1.270       .  A
C695       C1494   1.428       .  S
C696       C1488   1.432       .  S
C698       C1663   1.433       .  S
C700       C1491   1.436       .  S
C701        O702   1.278       .  A
C701       C1495   1.438       .  S
O703        C719   1.271       .  A
O703       Zn709   2.004   1_556  S
C704        O720   1.274       .  A
C704        O717   1.277       .  A
C704       C1478   1.430       .  S
O705        C718   1.280       .  A
O705       Cd712   2.094       .  S
O706        C724   1.280       .  A
O706       Cd715   2.104       .  S
O707        C721   1.278       .  A
O707       Cd711   2.079       .  S
O708        C719   1.276       .  A
O708       Cd711   2.088       .  S
Zn709       O720   2.005       .  S
Zn709       O722   1.990       .  S
Zn709       O714   1.894       .  S
O710        C721   1.275       .  A
O710       Cd715   2.068   1_556  S
Cd711       O713   2.049       .  S
Cd711       O714   1.964   1_556  S
Cd712       O716   2.089   1_554  S
Cd712       O725   2.057       .  S
Cd712       O714   1.970       .  S
O713        C723   1.272       .  A
O714       Cd715   1.976       .  S
Cd715       O717   2.075       .  S
O716        C723   1.279       .  A
C718        O722   1.272       .  A
C718       C1486   1.433       .  S
C719       C1482   1.439       .  S
C721       C1567   1.434       .  S
C723       C1484   1.432       .  S
C724        O725   1.272       .  A
C724       C1479   1.440       .  S
C726        C727   1.538       .  S
C726        C732   1.524       .  S
C726        C730   1.533       .  S
C726       C1475   1.465       .  S
C727        H734   1.086       .  S
C727        C728   1.371       .  D
C728        C729   1.543       .  S
C728       C1471   1.483       .  S
C729        C733   1.541       .  S
C729        C731   1.544       .  S
C729        H735   1.111       .  S
C730        H736   1.087       .  S
C730        C731   1.363       .  D
C731       C1500   1.449       .  S
C732        H737   1.088       .  S
C732        C733   1.356       .  D
C733       C1483   1.438       .  S
C738        C739   1.527       .  S
C738        C744   1.523       .  S
C738        C742   1.536       .  S
C738       C1772   1.466       .  S
C739        H746   1.087       .  S
C739        C740   1.362       .  D
C740        C741   1.555       .  S
C740       C1466   1.455       .  S
C741        C745   1.544       .  S
C741        C743   1.557       .  S
C741        H747   1.108       .  S
C742        H748   1.087       .  S
C742        C743   1.373       .  D
C743       C1467   1.500       .  S
C744        H749   1.088       .  S
C744        C745   1.355       .  D
C745       C1502   1.441       .  S
C750        C751   1.530       .  S
C750        C756   1.526       .  S
C750        C754   1.543       .  S
C750       C1463   1.466       .  S
C751        H758   1.087       .  S
C751        C752   1.360       .  D
C752        C753   1.544       .  S
C752       C1480   1.447       .  S
C753        C757   1.536       .  S
C753        C755   1.545       .  S
C753        H759   1.111       .  S
C754        H760   1.084       .  S
C754        C755   1.379       .  D
C755       C1459   1.496       .  S
C756        H761   1.088       .  S
C756        C757   1.355       .  D
C757       C1493   1.435       .  S
C762        C763   1.538       .  S
C762        C768   1.528       .  S
C762        C766   1.529       .  S
C762       C1457   1.466       .  S
C763        H770   1.086       .  S
C763        C764   1.370       .  D
C764        C765   1.548       .  S
C764       C1454   1.487       .  S
C765        C769   1.538       .  S
C765        C767   1.551       .  S
C765        H771   1.111       .  S
C766        H772   1.087       .  S
C766        C767   1.362       .  D
C767       C1489   1.451       .  S
C768        H773   1.087       .  S
C768        C769   1.357       .  D
C769       C1755   1.438       .  S
C774        C775   1.541       .  S
C774        C780   1.525       .  S
C774        C778   1.530       .  S
C774       C1451   1.463       .  S
C775        H782   1.086       .  S
C775        C776   1.373       .  D
C776        C777   1.545       .  S
C776       C1447   1.488       .  S
C777        C781   1.541       .  S
C777        C779   1.545       .  S
C777        H783   1.111       .  S
C778        H784   1.087       .  S
C778        C779   1.360       .  D
C779       C1446   1.448       .  S
C780        H785   1.088       .  S
C780        C781   1.356       .  D
C781       C1444   1.438       .  S
C786        C787   1.528       .  S
C786        C792   1.525       .  S
C786        C790   1.541       .  S
C786       C1699   1.463       .  S
C787        H794   1.087       .  S
C787        C788   1.359       .  D
C788        C789   1.545       .  S
C788       C1750   1.447       .  S
C789        C793   1.538       .  S
C789        C791   1.548       .  S
C789        H795   1.111       .  S
C790        H796   1.084       .  S
C790        C791   1.378       .  D
C791       C1439   1.497       .  S
C792        H797   1.088       .  S
C792        C793   1.355       .  D
C793       C1438   1.435       .  S
O798        C814   1.277       .  A
O798       Zn804   2.042   1_565  S
C799        O815   1.278       .  A
C799        O812   1.278       .  A
C799       C1448   1.485       .  S
O800        C813   1.280       .  A
O800       Cd807   2.108   1_556  S
O801        C819   1.277       .  A
O801       Cd810   2.087       .  S
O802        C816   1.278       .  A
O802       Cd806   2.096   1_545  S
O803        C814   1.275       .  A
O803       Cd806   2.085   1_556  S
Zn804       O815   2.045       .  S
Zn804       O817   2.035   1_545  S
Zn804       O809   1.960       .  S
O805        C816   1.278       .  A
O805       Cd810   2.093       .  S
Cd806       O808   2.091       .  S
Cd806       O809   2.019   1_564  S
Cd807       O811   2.094       .  S
Cd807       O820   2.098   1_565  S
Cd807       O809   2.019   1_564  S
O808        C818   1.279       .  A
O809       Cd810   2.015   1_556  S
Cd810       O812   2.095   1_554  S
O811        C818   1.278       .  A
C813        O817   1.275       .  A
C813       C1468   1.491       .  S
C814       C1472   1.481       .  S
C816       C1453   1.487       .  S
C818       C1460   1.488       .  S
C819        O820   1.278       .  A
C819       C1440   1.490       .  S
O821        C837   1.274       .  A
O821       Zn827   2.011       .  S
C822        O838   1.270       .  A
C822        O835   1.277       .  A
C822       C1429   1.446       .  S
O823        C836   1.282       .  A
O823       Cd830   2.103       .  S
O824        C842   1.272       .  A
O824       Cd833   2.049       .  S
O825        C839   1.274       .  A
O825       Cd829   2.059   1_455  S
O826        C837   1.279       .  A
O826       Cd829   2.093       .  S
Zn827       O838   2.012   1_655  S
Zn827       O840   1.978       .  S
Zn827       O832   1.899       .  S
O828        C839   1.278       .  A
O828       Cd833   2.077       .  S
Cd829       O831   2.120       .  S
Cd829       O832   1.984       .  S
Cd830       O834   2.068       .  S
Cd830       O843   2.099   1_655  S
Cd830       O832   1.976       .  S
O831        C841   1.282       .  A
O832       Cd833   1.966   1_655  S
Cd833       O835   2.102       .  S
O834        C841   1.273       .  A
C836        O840   1.271       .  A
C836       C1433   1.432       .  S
C837       C1683   1.439       .  S
C839       C1596   1.430       .  S
C841       C1431   1.449       .  S
C842        O843   1.281       .  A
C842       C1435   1.435       .  S
O844        C860   1.272       .  A
O844       Zn850   1.991       .  S
C845        O861   1.270       .  A
C845        O858   1.277       .  A
C845       C1425   1.443       .  S
O846        C859   1.279       .  A
O846       Cd853   2.087       .  S
O847        C865   1.273       .  A
O847       Cd856   2.054       .  S
O848        C862   1.273   1_556  A
O848       Cd852   2.056       .  S
O849        C860   1.278       .  A
O849       Cd852   2.077       .  S
Zn850       O861   2.004   1_556  S
Zn850       O863   1.985       .  S
Zn850       O855   1.890       .  S
O851        C862   1.280       .  A
O851       Cd856   2.091       .  S
Cd852       O854   2.105       .  S
Cd852       O855   1.977       .  S
Cd853       O857   2.059       .  S
Cd853       O866   2.079   1_556  S
Cd853       O855   1.966       .  S
O854        C864   1.280       .  A
O855       Cd856   1.965   1_556  S
Cd856       O858   2.102       .  S
O857        C864   1.271       .  A
C859        O863   1.270       .  A
C859       C1428   1.429       .  S
C860       C1423   1.427       .  S
C862       C1589   1.434       .  S
C864       C1445   1.442       .  S
C865        O866   1.278       .  A
C865       C1437   1.429       .  S
O867        C883   1.274       .  A
O867       Zn873   2.002       .  S
C868        O884   1.270       .  A
C868        O881   1.275       .  A
C868       C1643   1.438       .  S
O869        C882   1.280       .  A
O869       Cd876   2.096       .  S
O870        C888   1.271       .  A
O870       Cd879   2.040       .  S
O871        C885   1.275       .  A
O871       Cd875   2.067   1_565  S
O872        C883   1.278       .  A
O872       Cd875   2.078       .  S
Zn873       O884   2.006   1_545  S
Zn873       O886   1.983       .  S
Zn873       O878   1.891       .  S
O874        C885   1.277       .  A
O874       Cd879   2.075       .  S
Cd875       O877   2.109       .  S
Cd875       O878   1.972       .  S
Cd876       O880   2.063       .  S
Cd876       O889   2.089   1_545  S
Cd876       O878   1.969       .  S
O877        C887   1.281       .  A
O878       Cd879   1.958   1_545  S
Cd879       O881   2.085       .  S
O880        C887   1.272       .  A
C882        O886   1.271       .  A
C882       C1652   1.431       .  S
C883       C1417   1.430       .  S
C885       C1476   1.433       .  S
C887       C1419   1.445       .  S
C888        O889   1.279       .  A
C888       C1422   1.428       .  S
C890        C891   1.542       .  S
C890        C896   1.527       .  S
C890        C894   1.529       .  S
C890       C1416   1.472       .  S
C891        H898   1.086       .  S
C891        C892   1.373       .  D
C892        C893   1.549       .  S
C892       C1411   1.494       .  S
C893        C897   1.540       .  S
C893        C895   1.551       .  S
C893        H899   1.111       .  S
C894        H900   1.087       .  S
C894        C895   1.362       .  D
C895       C1420   1.451       .  S
C896        H901   1.088       .  S
C896        C897   1.357       .  D
C897       C1409   1.441       .  S
C902        C903   1.535       .  S
C902        C908   1.528       .  S
C902        C906   1.529       .  S
C902       C1487   1.463       .  S
C903        H910   1.086       .  S
C903        C904   1.368       .  D
C904        C905   1.548       .  S
C904       C1405   1.483       .  S
C905        C909   1.539       .  S
C905        C907   1.552       .  S
C905        H911   1.111       .  S
C906        H912   1.087       .  S
C906        C907   1.363       .  D
C907       C1430   1.452       .  S
C908        H913   1.088       .  S
C908        C909   1.357       .  D
C909       C1485   1.438       .  S
C914        C915   1.542       .  S
C914        C920   1.525       .  S
C914        C918   1.531       .  S
C914       C1711   1.470       .  S
C915        H922   1.086       .  S
C915        C916   1.376       .  D
C916        C917   1.547       .  S
C916       C1401   1.496       .  S
C917        C921   1.544       .  S
C917        C919   1.546       .  S
C917        H923   1.111       .  S
C918        H924   1.087       .  S
C918        C919   1.361       .  D
C919       C1426   1.450       .  S
C920        H925   1.088       .  S
C920        C921   1.357       .  D
C921       C1708   1.442       .  S
C926        C927   1.528       .  S
C926        C932   1.524       .  S
C926        C930   1.536       .  S
C926       C1770   1.464       .  S
C927        H934   1.087       .  S
C927        C928   1.362       .  D
C928        C929   1.553       .  S
C928       C1703   1.454       .  S
C929        C933   1.542       .  S
C929        C931   1.557       .  S
C929        H935   1.108       .  S
C930        H936   1.086       .  S
C930        C931   1.372       .  D
C931       C1397   1.499       .  S
C932        H937   1.088       .  S
C932        C933   1.354       .  D
C933       C1434   1.438       .  S
C938        C939   1.526       .  S
C938        C944   1.524       .  S
C938        C942   1.542       .  S
C938       C1628   1.460       .  S
C939        H946   1.087       .  S
C939        C940   1.358       .  D
C940        C941   1.546       .  S
C940       C1481   1.445       .  S
C941        C945   1.537       .  S
C941        C943   1.547       .  S
C941        H947   1.111       .  S
C942        H948   1.084       .  S
C942        C943   1.378       .  D
C943       C1393   1.495       .  S
C944        H949   1.088       .  S
C944        C945   1.354       .  D
C945       C1421   1.434       .  S
C950        C951   1.528       .  S
C950        C956   1.527       .  S
C950        C954   1.544       .  S
C950       C1391   1.467       .  S
C951        H958   1.087       .  S
C951        C952   1.359       .  D
C952        C953   1.547       .  S
C952       C1385   1.450       .  S
C953        C957   1.535       .  S
C953        C955   1.547       .  S
C953        H959   1.111       .  S
C954        H960   1.085       .  S
C954        C955   1.379       .  D
C955       C1387   1.498       .  S
C956        H961   1.088       .  S
C956        C957   1.356       .  D
C957       C1427   1.435       .  S
O962        C978   1.282       .  A
O962       Zn968   2.079   1_554  S
C963        O979   1.278       .  A
C963        O976   1.280       .  A
C963       C1412   1.490       .  S
O964        C977   1.278       .  A
O964       Cd971   2.095   1_545  S
O965        C983   1.278       .  A
O965       Cd974   2.084       .  S
O966        C980   1.276       .  A
O966       Cd970   2.083   1_465  S
O967        C978   1.276       .  A
O967       Cd970   2.078       .  S
Zn968       O979   2.049   1_655  S
Zn968       O981   2.048       .  S
Zn968       O973   1.964   1_556  S
O969        C980   1.277       .  A
O969       Cd974   2.091   1_554  S
Cd970       O972   2.076   1_545  S
Cd970       O973   2.007       .  S
Cd971       O975   2.113   1_556  S
Cd971       O984   2.099       .  S
Cd971       O973   2.021   1_566  S
O972        C982   1.275       .  A
O973       Cd974   2.018   1_644  S
Cd974       O976   2.111   1_565  S
O975        C982   1.281       .  A
C977        O981   1.278       .  A
C977       C1388   1.492       .  S
C978       C1402   1.486       .  S
C980       C1406   1.484       .  S
C982       C1398   1.489       .  S
C983        O984   1.279   1_455  A
C983       C1394   1.489       .  S
O985       C1001   1.276       .  A
O985       Zn991   2.016       .  S
C986       O1002   1.272       .  A
C986        O999   1.275       .  A
C986       C1382   1.444       .  S
O987       C1000   1.279       .  A
O987       Cd994   2.093       .  S
O988       C1006   1.271       .  A
O988       Cd997   2.043       .  S
O989       C1003   1.275       .  A
O989       Cd993   2.070   1_554  S
O990       C1001   1.280       .  A
O990       Cd993   2.094       .  S
Zn991      O1002   2.021   1_556  S
Zn991      O1004   1.993       .  S
Zn991       O996   1.902       .  S
O992       C1003   1.277       .  A
O992       Cd997   2.077       .  S
Cd993       O995   2.122       .  S
Cd993       O996   1.984       .  S
Cd994       O998   2.066       .  S
Cd994      O1007   2.086   1_556  S
Cd994       O996   1.977       .  S
O995       C1005   1.283       .  A
O996       Cd997   1.967   1_556  S
Cd997       O999   2.089       .  S
O998       C1005   1.273       .  A
C1000      O1004   1.272       .  A
C1000      C1384   1.433       .  S
C1001      C1415   1.440       .  S
C1003      C1458   1.434       .  S
C1005      C1569   1.449       .  S
C1006      O1007   1.278       .  A
C1006      C1546   1.428       .  S
O1008      C1024   1.274       .  A
O1008     Zn1014   2.007       .  S
C1009      O1025   1.271       .  A
C1009      O1022   1.276       .  A
C1009      C1610   1.439       .  S
O1010      C1023   1.278       .  A
O1010     Cd1017   2.085       .  S
O1011      C1029   1.274       .  A
O1011     Cd1020   2.058       .  S
O1012      C1026   1.273       .  A
O1012     Cd1016   2.054       .  S
O1013      C1024   1.275       .  A
O1013     Cd1016   2.069       .  S
Zn1014     O1025   2.004       .  S
Zn1014     O1027   1.991       .  S
Zn1014     O1019   1.892       .  S
O1015      C1026   1.278       .  A
O1015     Cd1020   2.082       .  S
Cd1016     O1018   2.086       .  S
Cd1016     O1019   1.974       .  S
Cd1017     O1021   2.051       .  S
Cd1017     O1030   2.083       .  S
Cd1017     O1019   1.970       .  S
O1018      C1028   1.277       .  A
O1019     Cd1020   1.962       .  S
Cd1020     O1022   2.091       .  S
O1021      C1028   1.270       .  A
C1023      O1027   1.271       .  A
C1023      C1598   1.431       .  S
C1024      C1532   1.430       .  S
C1026      C1558   1.431       .  S
C1028      C1377   1.433       .  S
C1029      O1030   1.278       .  A
C1029      C1379   1.433       .  S
O1031      C1047   1.270       .  A
O1031     Zn1037   2.002   1_655  S
C1032      O1048   1.274       .  A
C1032      O1045   1.279       .  A
C1032      C1658   1.435       .  S
O1033      C1046   1.279       .  A
O1033     Cd1040   2.095       .  S
O1034      C1052   1.282       .  A
O1034     Cd1043   2.113       .  S
O1035      C1049   1.281       .  A
O1035     Cd1039   2.100       .  S
O1036      C1047   1.278       .  A
O1036     Cd1039   2.103       .  S
Zn1037     O1048   2.005       .  S
Zn1037     O1050   1.999       .  S
Zn1037     O1042   1.901       .  S
O1038      C1049   1.275       .  A
O1038     Cd1043   2.074   1_655  S
Cd1039     O1041   2.054       .  S
Cd1039     O1042   1.975   1_655  S
Cd1040     O1044   2.080   1_455  S
Cd1040     O1053   2.060       .  S
Cd1040     O1042   1.977       .  S
O1041      C1051   1.273       .  A
O1042     Cd1043   1.983       .  S
Cd1043     O1045   2.087       .  S
O1044      C1051   1.277       .  A
C1046      O1050   1.272       .  A
C1046      C1410   1.436       .  S
C1047      C1386   1.443       .  S
C1049      C1604   1.444       .  S
C1051      C1375   1.430       .  S
C1052      O1053   1.272       .  A
C1052      C1373   1.444       .  S
C1054      C1055   1.539       .  S
C1054      C1060   1.527       .  S
C1054      C1058   1.526       .  S
C1054      C1424   1.458       .  S
C1055      H1062   1.084       .  S
C1055      C1056   1.376       .  D
C1056      C1057   1.545       .  S
C1056      C1369   1.490       .  S
C1057      C1061   1.536       .  S
C1057      C1059   1.541       .  S
C1057      H1063   1.111       .  S
C1058      H1064   1.087       .  S
C1058      C1059   1.358       .  D
C1059      C1378   1.439       .  S
C1060      H1065   1.088       .  S
C1060      C1061   1.355       .  D
C1061      C1376   1.436       .  S
C1066      C1067   1.528       .  S
C1066      C1072   1.527       .  S
C1066      C1070   1.538       .  S
C1066      C1540   1.464       .  S
C1067      H1074   1.087       .  S
C1067      C1068   1.362       .  D
C1068      C1069   1.551       .  S
C1068      C1374   1.450       .  S
C1069      C1073   1.539       .  S
C1069      C1071   1.548       .  S
C1069      H1075   1.111       .  S
C1070      H1076   1.086       .  S
C1070      C1071   1.370       .  D
C1071      C1365   1.488       .  S
C1072      H1077   1.088       .  S
C1072      C1073   1.356       .  D
C1073      C1383   1.439       .  S
C1078      C1079   1.525       .  S
C1078      C1084   1.526       .  S
C1078      C1082   1.533       .  S
C1078      C1626   1.456       .  S
C1079      H1086   1.087       .  S
C1079      C1080   1.360       .  D
C1080      C1081   1.552       .  S
C1080      C1776   1.448       .  S
C1081      C1085   1.540       .  S
C1081      C1083   1.551       .  S
C1081      H1087   1.111       .  S
C1082      H1088   1.086       .  S
C1082      C1083   1.368       .  D
C1083      C1361   1.484       .  S
C1084      H1089   1.088       .  S
C1084      C1085   1.356       .  D
C1085      C1380   1.438       .  S
C1090      C1091   1.540       .  S
C1090      C1096   1.526       .  S
C1090      C1094   1.530       .  S
C1090      C1709   1.464       .  S
C1091      H1098   1.084       .  S
C1091      C1092   1.376       .  D
C1092      C1093   1.545       .  S
C1092      C1358   1.493       .  S
C1093      C1097   1.537       .  S
C1093      C1095   1.547       .  S
C1093      H1099   1.111       .  S
C1094      H1100   1.087       .  S
C1094      C1095   1.361       .  D
C1095      C1381   1.450       .  S
C1096      H1101   1.088       .  S
C1096      C1097   1.355       .  D
C1097      C1767   1.435       .  S
C1102      C1103   1.537       .  S
C1102      C1108   1.523       .  S
C1102      C1106   1.531       .  S
C1102      C1722   1.466       .  S
C1103      H1110   1.087       .  S
C1103      C1104   1.373       .  D
C1104      C1105   1.556       .  S
C1104      C1354   1.499       .  S
C1105      C1109   1.539       .  S
C1105      C1107   1.551       .  S
C1105      H1111   1.107       .  S
C1106      H1112   1.087       .  S
C1106      C1107   1.363       .  D
C1107      C1432   1.456       .  S
C1108      H1113   1.088       .  S
C1108      C1109   1.354       .  D
C1109      C1779   1.435       .  S
C1114      C1115   1.528       .  S
C1114      C1120   1.523       .  S
C1114      C1118   1.538       .  S
C1114      C1477   1.461       .  S
C1115      H1122   1.087       .  S
C1115      C1116   1.360       .  D
C1116      C1117   1.548       .  S
C1116      C1762   1.448       .  S
C1117      C1121   1.544       .  S
C1117      C1119   1.547       .  S
C1117      H1123   1.111       .  S
C1118      H1124   1.086       .  S
C1118      C1119   1.374       .  D
C1119      C1349   1.489       .  S
C1120      H1125   1.088       .  S
C1120      C1121   1.355       .  D
C1121      C1436   1.439       .  S
O1126      C1142   1.276       .  A
O1126     Zn1132   2.035   1_455  S
C1127      O1143   1.276       .  A
C1127      O1140   1.276       .  A
C1127      C1362   1.485       .  S
O1128      C1141   1.279       .  A
O1128     Cd1135   2.104       .  S
O1129      C1147   1.277       .  A
O1129     Cd1138   2.073       .  S
O1130      C1144   1.278       .  A
O1130     Cd1134   2.089   1_556  S
O1131      C1142   1.279       .  A
O1131     Cd1134   2.098       .  S
Zn1132     O1143   2.041   1_554  S
Zn1132     O1145   2.026       .  S
Zn1132     O1137   1.954   1_654  S
O1133      C1144   1.279       .  A
O1133     Cd1138   2.103   1_455  S
Cd1134     O1136   2.082       .  S
Cd1134     O1137   2.009   1_554  S
Cd1135     O1139   2.091       .  S
Cd1135     O1148   2.091       .  S
Cd1135     O1137   2.020   1_654  S
O1136      C1146   1.276       .  A
O1137     Cd1138   2.013   1_455  S
Cd1138     O1140   2.086       .  S
O1139      C1146   1.277   1_655  A
C1141      O1145   1.274       .  A
C1141      C1353   1.486       .  S
C1142      C1350   1.482       .  S
C1144      C1366   1.487       .  S
C1146      C1357   1.486       .  S
C1147      O1148   1.277   1_556  A
C1147      C1370   1.484       .  S
O1149      C1165   1.272       .  A
O1149     Zn1155   2.014       .  S
C1150      O1166   1.275       .  A
C1150      O1163   1.277       .  A
C1150      C1464   1.436       .  S
O1151      C1164   1.278       .  A
O1151     Cd1158   2.080       .  S
O1152      C1170   1.280       .  A
O1152     Cd1161   2.107       .  S
O1153      C1167   1.277       .  A
O1153     Cd1157   2.067       .  S
O1154      C1165   1.275       .  A
O1154     Cd1157   2.088       .  S
Zn1155     O1166   2.015       .  S
Zn1155     O1168   1.980       .  S
Zn1155     O1160   1.894       .  S
O1156      C1167   1.274       .  A
O1156     Cd1161   2.058       .  S
Cd1157     O1159   2.049       .  S
Cd1157     O1160   1.960       .  S
Cd1158     O1162   2.086       .  S
Cd1158     O1171   2.051       .  S
Cd1158     O1160   1.969       .  S
O1159      C1169   1.272       .  A
O1160     Cd1161   1.976       .  S
Cd1161     O1163   2.081       .  S
O1162      C1169   1.278       .  A
C1164      O1168   1.271       .  A
C1164      C1348   1.424       .  S
C1165      C1346   1.441       .  S
C1167      C1584   1.426       .  S
C1169      C1533   1.431       .  S
C1170      O1171   1.270       .  A
C1170      C1513   1.440       .  S
O1172      C1188   1.273       .  A
O1172     Zn1178   2.000       .  S
C1173      O1189   1.270       .  A
C1173      O1186   1.274       .  A
C1173      C1342   1.436       .  S
O1174      C1187   1.280       .  A
O1174     Cd1181   2.096       .  S
O1175      C1193   1.271       .  A
O1175     Cd1184   2.044       .  S
O1176      C1190   1.273       .  A
O1176     Cd1180   2.059       .  S
O1177      C1188   1.277       .  A
O1177     Cd1180   2.080       .  S
Zn1178     O1189   2.002       .  S
Zn1178     O1191   1.989       .  S
Zn1178     O1183   1.900       .  S
O1179      C1190   1.275       .  A
O1179     Cd1184   2.067       .  S
Cd1180     O1182   2.104       .  S
Cd1180     O1183   1.981       .  S
Cd1181     O1185   2.065       .  S
Cd1181     O1194   2.088       .  S
Cd1181     O1183   1.976       .  S
O1182      C1192   1.280       .  A
O1183     Cd1184   1.967       .  S
Cd1184     O1186   2.081       .  S
O1185      C1192   1.272       .  A
C1187      O1191   1.271       .  A
C1187      C1344   1.433       .  S
C1188      C1452   1.431       .  S
C1190      C1578   1.428       .  S
C1192      C1526   1.443       .  S
C1193      O1194   1.279       .  A
C1193      C1504   1.429       .  S
O1195      C1211   1.271       .  A
O1195     Zn1201   2.013   1_565  S
C1196      O1212   1.274       .  A
C1196      O1209   1.280       .  A
C1196      C1392   1.436       .  S
O1197      C1210   1.281       .  A
O1197     Cd1204   2.100       .  S
O1198      C1216   1.282       .  A
O1198     Cd1207   2.120       .  S
O1199      C1213   1.282       .  A
O1199     Cd1203   2.100       .  S
O1200      C1211   1.279       .  A
O1200     Cd1203   2.110       .  S
Zn1201     O1212   2.004       .  S
Zn1201     O1214   1.982       .  S
Zn1201     O1206   1.896       .  S
O1202      C1213   1.273   1_545  A
O1202     Cd1207   2.062       .  S
Cd1203     O1205   2.051       .  S
Cd1203     O1206   1.969   1_565  S
Cd1204     O1208   2.091   1_545  S
Cd1204     O1217   2.066       .  S
Cd1204     O1206   1.974       .  S
O1205      C1215   1.273       .  A
O1206     Cd1207   1.981       .  S
Cd1207     O1209   2.093       .  S
O1208      C1215   1.280       .  A
C1210      O1214   1.270       .  A
C1210      C1443   1.432       .  S
C1211      C1465   1.449       .  S
C1213      C1672   1.439       .  S
C1215      C1339   1.432       .  S
C1216      O1217   1.272       .  A
C1216      C1338   1.448       .  S
C1218      C1219   1.540       .  S
C1218      C1224   1.529       .  S
C1218      C1222   1.528       .  S
C1218      C1418   1.461       .  S
C1219      H1226   1.086       .  S
C1219      C1220   1.374       .  D
C1220      C1221   1.542       .  S
C1220      C1333   1.485       .  S
C1221      C1225   1.532       .  S
C1221      C1223   1.543       .  S
C1221      H1227   1.112       .  S
C1222      H1228   1.087       .  S
C1222      C1223   1.360       .  D
C1223      C1341   1.442       .  S
C1224      H1229   1.088       .  S
C1224      C1225   1.355       .  D
C1225      C1742   1.433       .  S
C1230      C1231   1.544       .  S
C1230      C1236   1.528       .  S
C1230      C1234   1.528       .  S
C1230      C1498   1.468       .  S
C1231      H1238   1.086       .  S
C1231      C1232   1.375       .  D
C1232      C1233   1.545       .  S
C1232      C1329   1.489       .  S
C1233      C1237   1.536       .  S
C1233      C1235   1.548       .  S
C1233      H1239   1.111       .  S
C1234      H1240   1.087       .  S
C1234      C1235   1.361       .  D
C1235      C1690   1.448       .  S
C1236      H1241   1.088       .  S
C1236      C1237   1.355       .  D
C1237      C1340   1.438       .  S
C1242      C1243   1.528       .  S
C1242      C1248   1.524       .  S
C1242      C1246   1.535       .  S
C1242      C1634   1.461       .  S
C1243      H1250   1.087       .  S
C1243      C1244   1.361       .  D
C1244      C1245   1.552       .  S
C1244      C1337   1.454       .  S
C1245      C1249   1.540       .  S
C1245      C1247   1.560       .  S
C1245      H1251   1.107       .  S
C1246      H1252   1.086       .  S
C1246      C1247   1.371       .  D
C1247      C1326   1.499       .  S
C1248      H1253   1.088       .  S
C1248      C1249   1.354       .  D
C1249      C1343   1.438       .  S
C1254      C1255   1.539       .  S
C1254      C1260   1.528       .  S
C1254      C1258   1.526       .  S
C1254      C1781   1.458       .  S
C1255      H1262   1.085       .  S
C1255      C1256   1.375       .  D
C1256      C1257   1.541       .  S
C1256      C1321   1.487       .  S
C1257      C1261   1.532       .  S
C1257      C1259   1.545       .  S
C1257      H1263   1.112       .  S
C1258      H1264   1.087       .  S
C1258      C1259   1.359       .  D
C1259      C1492   1.443       .  S
C1260      H1265   1.088       .  S
C1260      C1261   1.355       .  D
C1261      C1347   1.431       .  S
C1266      C1267   1.529       .  S
C1266      C1272   1.525       .  S
C1266      C1270   1.551       .  S
C1266      C1698   1.475       .  S
C1267      H1274   1.087       .  S
C1267      C1268   1.359       .  D
C1268      C1269   1.544       .  S
C1268      C1345   1.447       .  S
C1269      C1273   1.538       .  S
C1269      C1271   1.545       .  S
C1269      H1275   1.111       .  S
C1270      H1276   1.085       .  S
C1270      C1271   1.383       .  D
C1271      C1317   1.502       .  S
C1272      H1277   1.088       .  S
C1272      C1273   1.355       .  D
C1273      C1696   1.437       .  S
C1278      C1279   1.527       .  S
C1278      C1284   1.522       .  S
C1278      C1282   1.533       .  S
C1278      C1746   1.460       .  S
C1279      H1286   1.087       .  S
C1279      C1280   1.361       .  D
C1280      C1281   1.552       .  S
C1280      C1737   1.452       .  S
C1281      C1285   1.545       .  S
C1281      C1283   1.564       .  S
C1281      H1287   1.108       .  S
C1282      H1288   1.086       .  S
C1282      C1283   1.371       .  D
C1283      C1313   1.502       .  S
C1284      H1289   1.088       .  S
C1284      C1285   1.354       .  D
C1285      C1496   1.441       .  S
O1290      C1306   1.280       .  A
O1290     Zn1296   2.073       .  S
C1291      O1307   1.281       .  A
C1291      O1304   1.273       .  A
C1291      C1322   1.477       .  S
O1292      C1305   1.280   1_545  A
O1292     Cd1299   2.106       .  S
O1293      C1311   1.272       .  A
O1293     Cd1302   2.054       .  S
O1294      C1308   1.275       .  A
O1294     Cd1298   2.093       .  S
O1295      C1306   1.275       .  A
O1295     Cd1298   2.071   1_565  S
Zn1296     O1307   2.060       .  S
Zn1296     O1309   2.065       .  S
Zn1296     O1301   1.965   1_565  S
O1297      C1308   1.274       .  A
O1297     Cd1302   2.070       .  S
Cd1298     O1300   2.051       .  S
Cd1298     O1301   2.002       .  S
Cd1299     O1303   2.134       .  S
Cd1299     O1312   2.140       .  S
Cd1299     O1301   2.028       .  S
O1300      C1310   1.273       .  A
O1301     Cd1302   1.992       .  S
Cd1302     O1304   2.063   1_545  S
O1303      C1310   1.285       .  A
C1305      O1309   1.282       .  A
C1305      C1318   1.497       .  S
C1306      C1330   1.488       .  S
C1308      C1334   1.480       .  S
C1310      C1325   1.486       .  S
C1311      O1312   1.285       .  A
C1311      C1314   1.490       .  S
C1313      H1315   1.087       .  S
C1313      C1314   1.344       .  D
C1314      H1316   1.083       .  S
C1317      H1319   1.086       .  S
C1317      C1318   1.351       .  D
C1318      H1320   1.085       .  S
C1321      H1323   1.087       .  S
C1321      C1322   1.342       .  D
C1322      H1324   1.086       .  S
C1325      H1327   1.082       .  S
C1325      C1326   1.343       .  D
C1326      H1328   1.086       .  S
C1329      H1331   1.087       .  S
C1329      C1330   1.348       .  D
C1330      H1332   1.086       .  S
C1333      H1335   1.087       .  S
C1333      C1334   1.345       .  D
C1334      H1336   1.086       .  S
C1337      C1338   1.214       .  T
C1339      C1340   1.204       .  T
C1341      C1342   1.206       .  T
C1343      C1344   1.204       .  T
C1345      C1346   1.210       .  T
C1347      C1348   1.200       .  T
C1349      H1351   1.086       .  S
C1349      C1350   1.347       .  D
C1350      H1352   1.087       .  S
C1353      H1355   1.083       .  S
C1353      C1354   1.347       .  D
C1354      H1356   1.088       .  S
C1357      H1359   1.084       .  S
C1357      C1358   1.350       .  D
C1358      H1360   1.086       .  S
C1361      H1363   1.086       .  S
C1361      C1362   1.346       .  D
C1362      H1364   1.087       .  S
C1365      H1367   1.086       .  S
C1365      C1366   1.346       .  D
C1366      H1368   1.087       .  S
C1369      H1371   1.086       .  S
C1369      C1370   1.349       .  D
C1370      H1372   1.084       .  S
C1373      C1374   1.211       .  T
C1375      C1376   1.203       .  T
C1377      C1378   1.205       .  T
C1379      C1380   1.204       .  T
C1381      C1382   1.211       .  T
C1383      C1384   1.205       .  T
C1385      C1386   1.211       .  T
C1387      H1389   1.086       .  S
C1387      C1388   1.351       .  D
C1388      H1390   1.085       .  S
C1391      C1392   1.207       .  T
C1393      H1395   1.086       .  S
C1393      C1394   1.350       .  D
C1394      H1396   1.084       .  S
C1397      H1399   1.086       .  S
C1397      C1398   1.347       .  D
C1398      H1400   1.082       .  S
C1401      H1403   1.086       .  S
C1401      C1402   1.348       .  D
C1402      H1404   1.086       .  S
C1405      H1407   1.086       .  S
C1405      C1406   1.346       .  D
C1406      H1408   1.087       .  S
C1409      C1410   1.206       .  T
C1411      H1413   1.086       .  S
C1411      C1412   1.348       .  D
C1412      H1414   1.087       .  S
C1415      C1416   1.209       .  T
C1417      C1418   1.203       .  T
C1419      C1420   1.212       .  T
C1421      C1422   1.202       .  T
C1423      C1424   1.201       .  T
C1425      C1426   1.211       .  T
C1427      C1428   1.202       .  T
C1429      C1430   1.212       .  T
C1431      C1432   1.215       .  T
C1433      C1434   1.204       .  T
C1435      C1436   1.206       .  T
C1437      C1438   1.202       .  T
C1439      H1441   1.086       .  S
C1439      C1440   1.351       .  D
C1440      H1442   1.084       .  S
C1443      C1444   1.204       .  T
C1445      C1446   1.210       .  T
C1447      H1449   1.086       .  S
C1447      C1448   1.347       .  D
C1448      H1450   1.087       .  S
C1451      C1452   1.204       .  T
C1453      H1455   1.087       .  S
C1453      C1454   1.347       .  D
C1454      H1456   1.086       .  S
C1457      C1458   1.205       .  T
C1459      H1461   1.086       .  S
C1459      C1460   1.349       .  D
C1460      H1462   1.084       .  S
C1463      C1464   1.206       .  T
C1465      C1466   1.214       .  T
C1467      H1469   1.087       .  S
C1467      C1468   1.348       .  D
C1468      H1470   1.084       .  S
C1471      H1473   1.086       .  S
C1471      C1472   1.345       .  D
C1472      H1474   1.087       .  S
C1475      C1476   1.205       .  T
C1477      C1478   1.203       .  T
C1479      C1480   1.209       .  T
C1481      C1482   1.208       .  T
C1483      C1484   1.204       .  T
C1485      C1486   1.204       .  T
C1487      C1488   1.204       .  T
C1489      C1490   1.212       .  T
C1491      C1492   1.207       .  T
C1493      C1494   1.202       .  T
C1495      C1496   1.207       .  T
C1497      C1498   1.207       .  T
C1499      C1500   1.211       .  T
C1501      C1502   1.206       .  T
C1503      C1504   1.202       .  T
C1505      H1507   1.087       .  S
C1505      C1506   1.345       .  D
C1506      H1508   1.086       .  S
C1509      H1511   1.086       .  S
C1509      C1510   1.344       .  D
C1510      H1512   1.087       .  S
C1513      C1514   1.209       .  T
C1515      H1517   1.086       .  S
C1515      C1516   1.342       .  D
C1516      H1518   1.086       .  S
C1519      H1521   1.086       .  S
C1519      C1520   1.350       .  D
C1520      H1522   1.085       .  S
C1523      C1524   1.204       .  T
C1525      C1526   1.211       .  T
C1527      H1529   1.087       .  S
C1527      C1528   1.345       .  D
C1528      H1530   1.083       .  S
C1531      C1532   1.203       .  T
C1533      C1534   1.204       .  T
C1535      H1537   1.086       .  S
C1535      C1536   1.350       .  D
C1536      H1538   1.084       .  S
C1539      C1540   1.204       .  T
C1541      C1542   1.212       .  T
C1543      C1544   1.201       .  T
C1545      C1546   1.202       .  T
C1547      H1549   1.087       .  S
C1547      C1548   1.343       .  D
C1548      H1550   1.086       .  S
C1551      C1552   1.212       .  T
C1553      H1555   1.087       .  S
C1553      C1554   1.346       .  D
C1554      H1556   1.084       .  S
C1557      C1558   1.203       .  T
C1559      C1560   1.207       .  T
C1561      C1562   1.213       .  T
C1563      H1565   1.086       .  S
C1563      C1564   1.347       .  D
C1564      H1566   1.086       .  S
C1567      C1568   1.205       .  T
C1569      C1570   1.215       .  T
C1571      C1572   1.207       .  T
C1573      H1575   1.087       .  S
C1573      C1574   1.342       .  D
C1574      H1576   1.083       .  S
C1577      C1578   1.202       .  T
C1579      H1581   1.087       .  S
C1579      C1580   1.341       .  D
C1580      H1582   1.086       .  S
C1583      C1584   1.201       .  T
C1585      H1587   1.084       .  S
C1585      C1586   1.355       .  D
C1586      H1588   1.086       .  S
C1589      C1590   1.205       .  T
C1591      H1593   1.087       .  S
C1591      C1592   1.346       .  D
C1592      H1594   1.086       .  S
C1595      C1596   1.203       .  T
C1597      C1598   1.203       .  T
C1599      H1601   1.086       .  S
C1599      C1600   1.348       .  D
C1600      H1602   1.084       .  S
C1603      C1604   1.211       .  T
C1605      H1607   1.086       .  S
C1605      C1606   1.345       .  D
C1606      H1608   1.086       .  S
C1609      C1610   1.208       .  T
C1611      H1613   1.086       .  S
C1611      C1612   1.346       .  D
C1612      H1614   1.086       .  S
C1615      H1617   1.087       .  S
C1615      C1616   1.347       .  D
C1616      H1618   1.083       .  S
C1619      H1621   1.086       .  S
C1619      C1620   1.349       .  D
C1620      H1622   1.085       .  S
C1623      C1624   1.210       .  T
C1625      C1626   1.200       .  T
C1627      C1628   1.202       .  T
C1629      C1630   1.211       .  T
C1631      C1632   1.200       .  T
C1633      C1634   1.202       .  T
C1635      C1636   1.210       .  T
C1637      C1638   1.210       .  T
C1639      C1640   1.204       .  T
C1641      C1642   1.201       .  T
C1643      C1644   1.208       .  T
C1645      C1646   1.200       .  T
C1647      H1649   1.086       .  S
C1647      C1648   1.346       .  D
C1648      H1650   1.086       .  S
C1651      C1652   1.204       .  T
C1653      H1655   1.086       .  S
C1653      C1654   1.351       .  D
C1654      H1656   1.084       .  S
C1657      C1658   1.206       .  T
C1659      H1661   1.087       .  S
C1659      C1660   1.345       .  D
C1660      H1662   1.086       .  S
C1663      C1664   1.205       .  T
C1665      C1666   1.208       .  T
C1667      H1669   1.086       .  S
C1667      C1668   1.349       .  D
C1668      H1670   1.085       .  S
C1671      C1672   1.208       .  T
C1673      H1675   1.083       .  S
C1673      C1674   1.347       .  D
C1674      H1676   1.087       .  S
C1677      C1678   1.204       .  T
C1679      H1681   1.087       .  S
C1679      C1680   1.345       .  D
C1680      H1682   1.086       .  S
C1683      C1684   1.208       .  T
C1685      C1686   1.204       .  T
C1687      C1688   1.205       .  T
C1689      C1690   1.210       .  T
C1691      C1692   1.209       .  T
C1693      C1694   1.203       .  T
C1695      C1696   1.203       .  T
C1697      C1698   1.211       .  T
C1699      C1700   1.204       .  T
C1701      C1702   1.213       .  T
C1703      C1704   1.213       .  T
C1705      C1706   1.201       .  T
C1707      C1708   1.207       .  T
C1709      C1710   1.204       .  T
C1711      C1712   1.208       .  T
C1713      C1714   1.208       .  T
C1715      C1716   1.210       .  T
C1717      C1718   1.205       .  T
C1719      C1720   1.206       .  T
C1721      C1722   1.206       .  T
C1723      C1724   1.208       .  T
C1725      C1726   1.213       .  T
C1727      C1728   1.208       .  T
C1729      C1730   1.205       .  T
C1731      C1732   1.208       .  T
C1733      C1734   1.206       .  T
C1735      C1736   1.203       .  T
C1737      C1738   1.212       .  T
C1739      C1740   1.209       .  T
C1741      C1742   1.201       .  T
C1743      C1744   1.202       .  T
C1745      C1746   1.202       .  T
C1747      C1748   1.207       .  T
C1749      C1750   1.209       .  T
C1751      C1752   1.209       .  T
C1753      C1754   1.203       .  T
C1755      C1756   1.204       .  T
C1757      C1758   1.203       .  T
C1759      C1760   1.206       .  T
C1761      C1762   1.210       .  T
C1763      C1764   1.209       .  T
C1765      C1766   1.204       .  T
C1767      C1768   1.202       .  T
C1769      C1770   1.204       .  T
C1771      C1772   1.206       .  T
C1773      C1774   1.208       .  T
C1775      C1776   1.210       .  T
C1777      C1778   1.206       .  T
C1779      C1780   1.203       .  T
C1781      C1782   1.201       .  T
C1783      C1784   1.206       .  T
C1785      C1786   1.206       .  T
C1787      C1788   1.211       .  T
C1789      C1790   1.203       .  T
C1791      C1792   1.203       .  T
