geometry optimzed in LAMMPS
_audit_creation_date              2020-11-30 
_audit_creation_method            'lammps2cif' 
_symmetry_space_group_name_H-M    'P1' 
_symmetry_Int_Tables_number       1 
_symmetry_cell_setting            triclinic 
loop_ 
_symmetry_equiv_pos_as_xyz 
  x,y,z 
_cell_length_a                    32.25717302 
_cell_length_b                    32.25744445880569 
_cell_length_c                    32.26089004568913 
_cell_angle_alpha                 89.99353887118566 
_cell_angle_beta                  89.99853397181246 
_cell_angle_gamma                 90.00242137363449 
loop_ 
_atom_site_label 
_atom_site_type_symbol 
_atom_site_fract_x 
_atom_site_fract_y 
_atom_site_fract_z 
_atom_site_charge 
In1        In  0.48474029  0.35269074  0.89017448     1.36900
C2          C  0.48472895  0.37862365  0.81320652     0.82700
O3          O  0.41765978  0.33822940  0.88187372    -0.55700
O4          O  0.43698334  0.39639817  0.90918112    -0.46600
C5          C  0.48451625  0.31323829  0.96094325     0.75400
O6          O  0.48337051  0.29297711  0.92692418    -0.41500
C7          C  0.56299580  0.36882893  0.89449299     0.80100
O8          O  0.48364201  0.33988224  0.82153752    -0.53300
O9          O  0.53539952  0.39346795  0.90785511    -0.43400
O10         O  0.48565718  0.40290277  0.84400497    -0.49800
C11         C  0.40764674  0.37324729  0.89691922     0.90300
O12         O  0.48583054  0.35230358  0.95778120    -0.51700
O13         O  0.55061054  0.33440590  0.87983593    -0.55000
In14       In  0.30765384  0.53435728  0.89137361     1.36900
C15         C  0.33335452  0.53323068  0.81410812     0.82700
O16         O  0.29381088  0.60146837  0.88191106    -0.55700
O17         O  0.35143645  0.58213106  0.91023025    -0.46600
C18         C  0.26654917  0.53551919  0.96136619     0.75400
O19         O  0.24700032  0.53568143  0.92691005    -0.41500
C20         C  0.32592971  0.45663907  0.89802354     0.80100
O21         O  0.29463451  0.53403356  0.82257879    -0.53300
O22         O  0.34966156  0.48524309  0.91083802    -0.43400
O23         O  0.35765896  0.53308138  0.84487282    -0.49800
C24         C  0.32874554  0.61144456  0.89713870     0.90300
O25         O  0.30565669  0.53480243  0.95897126    -0.51700
O26         O  0.29133961  0.46770633  0.88276432    -0.55000
In27       In  0.49146257  0.70830148  0.88954652     1.36900
C28         C  0.48968338  0.68220668  0.81273313     0.82700
O29         O  0.55783430  0.72441294  0.87879546    -0.55700
O30         O  0.54079338  0.66572681  0.90661290    -0.46600
C31         C  0.49327392  0.74684904  0.96072733     0.75400
O32         O  0.49283460  0.76753590  0.92694226    -0.41500
C33         C  0.41351328  0.69145819  0.89622765     0.80100
O34         O  0.49033504  0.72098315  0.82094228    -0.53300
O35         O  0.44170827  0.66688981  0.90843460    -0.43400
O36         O  0.48995146  0.65795852  0.84358646    -0.49800
C37         C  0.56913820  0.68954782  0.89331002     0.90300
O38         O  0.49285970  0.70779005  0.95714768    -0.51700
O39         O  0.42517329  0.72607362  0.88140189    -0.55000
In40       In  0.66367008  0.52754898  0.88854918     1.36900
C41         C  0.63718789  0.52827117  0.81202588     0.82700
O42         O  0.68049344  0.46122895  0.87888790    -0.55700
O43         O  0.62125120  0.47816995  0.90567612    -0.46600
C44         C  0.70031048  0.52668811  0.96058508     0.75400
O45         O  0.72181967  0.52624374  0.92732182    -0.41500
C46         C  0.64881911  0.60594376  0.89298782     0.80100
O47         O  0.67600494  0.52739772  0.82002541    -0.53300
O48         O  0.62343725  0.57869174  0.90571525    -0.43400
O49         O  0.61303646  0.52868378  0.84297941    -0.49800
C50         C  0.64552873  0.44984508  0.89315231     0.90300
O51         O  0.66132695  0.52758395  0.95611187    -0.51700
O52         O  0.68329680  0.59308579  0.87879685    -0.55000
In53       In  0.48997734  0.90027600  0.34099108     1.36900
C54         C  0.48895184  0.82349609  0.36749664     0.82700
O55         O  0.55615724  0.88946832  0.32401367    -0.55700
O56         O  0.53996888  0.91790972  0.38260247    -0.46600
C57         C  0.49029688  0.97107073  0.30154867     0.75400
O58         O  0.48962430  0.93704955  0.28126030    -0.41500
C59         C  0.41246187  0.90707689  0.35982851     0.80100
O60         O  0.48880710  0.83154255  0.32867888    -0.53300
O61         O  0.44128738  0.91944557  0.38356092    -0.43400
O62         O  0.48951637  0.85447976  0.39155943    -0.49800
C63         C  0.56796198  0.90421913  0.35860362     0.90300
O64         O  0.49109696  0.96789081  0.34062409    -0.51700
O65         O  0.42323238  0.89194199  0.32506962    -0.55000
In66       In  0.30871942  0.90173052  0.51878390     1.36900
C67         C  0.33492655  0.82469127  0.51904612     0.82700
O68         O  0.29418261  0.89259966  0.45178525    -0.55700
O69         O  0.35180362  0.92126571  0.47059740    -0.46600
C70         C  0.26706654  0.97138674  0.51887268     0.75400
O71         O  0.24778901  0.93677849  0.51851291    -0.41500
C72         C  0.32786349  0.90753992  0.59634741     0.80100
O73         O  0.29614443  0.83289983  0.51869467    -0.53300
O74         O  0.35112748  0.92096331  0.56763281    -0.43400
O75         O  0.35905215  0.85560384  0.51914281    -0.49800
C76         C  0.32889768  0.90811159  0.44148385     0.90300
O77         O  0.30619747  0.96930645  0.51916138    -0.51700
O78         O  0.29326984  0.89212894  0.58550008    -0.55000
In79       In  0.48842783  0.89970430  0.69704666     1.36900
C80         C  0.48794123  0.82281665  0.67124117     0.82700
O81         O  0.42172442  0.89120358  0.71309797    -0.55700
O82         O  0.43965143  0.91813665  0.65428930    -0.46600
C83         C  0.48850707  0.97092019  0.73554698     0.75400
O84         O  0.48785548  0.93714966  0.75624839    -0.41500
C85         C  0.56645662  0.90372327  0.67985590     0.80100
O86         O  0.48761274  0.83115303  0.70999249    -0.53300
O87         O  0.53856141  0.91700926  0.65551072    -0.43400
O88         O  0.48838961  0.85358227  0.64688994    -0.49800
C89         C  0.41088375  0.90594470  0.67818821     0.90300
O90         O  0.48937556  0.96731005  0.69650569    -0.51700
O91         O  0.55450954  0.88931079  0.71454552    -0.55000
In92       In  0.66468721  0.89811168  0.51966833     1.36900
C93         C  0.63857977  0.82150596  0.51977545     0.82700
O94         O  0.68259778  0.88838940  0.58568941    -0.55700
O95         O  0.62297503  0.91494989  0.56973371    -0.46600
C96         C  0.70095882  0.97035797  0.52030624     0.75400
O97         O  0.72264300  0.93720473  0.52028733    -0.41500
C98         C  0.64856843  0.90264088  0.44147162     0.80100
O99         O  0.67737386  0.82966682  0.51987601    -0.53300
O100        O  0.62352631  0.91506162  0.46916227    -0.43400
O101        O  0.61427712  0.85234246  0.51952663    -0.49800
C102        C  0.64774520  0.90245515  0.59764737     0.90300
O103        O  0.66198991  0.96567528  0.51992109    -0.51700
O104        O  0.68330547  0.88857601  0.45376453    -0.55000
In105      In  0.85630081  0.52947102  0.69794751     1.36900
C106        C  0.77947324  0.52941236  0.67176263     0.82700
O107        O  0.84686048  0.59558857  0.71559444    -0.55700
O108        O  0.87391912  0.57936131  0.65630310    -0.46600
C109        C  0.92781718  0.52994893  0.73580225     0.75400
O110        O  0.89421883  0.52971858  0.75679453    -0.41500
C111        C  0.86164217  0.45163243  0.68050248     0.80100
O112        O  0.78768070  0.52927985  0.71053942    -0.53300
O113        O  0.87420095  0.47982789  0.65610380    -0.43400
O114        O  0.81034951  0.52959121  0.64753022    -0.49800
C115        C  0.86138265  0.60739666  0.68089620     0.90300
O116        O  0.92390757  0.52976024  0.69676782    -0.51700
O117        O  0.84713048  0.46321726  0.71527691    -0.55000
In118      In  0.85754453  0.70699901  0.52163888     1.36900
C119        C  0.78056239  0.68092530  0.52098629     0.82700
O120        O  0.84905976  0.72260431  0.45490524    -0.55700
O121        O  0.87658169  0.66416565  0.47316709    -0.46600
C122        C  0.92817892  0.74667098  0.52156562     0.75400
O123        O  0.89408711  0.76683984  0.52097990    -0.41500
C124        C  0.86237210  0.68960422  0.59956484     0.80100
O125        O  0.78885627  0.71968596  0.52069887    -0.53300
O126        O  0.87558556  0.66542443  0.57150303    -0.43400
O127        O  0.81140498  0.65668432  0.52161446    -0.49800
C128        C  0.86412951  0.68778026  0.44427846     0.90300
O129        O  0.92515864  0.70758142  0.52233019    -0.51700
O130        O  0.84752338  0.72417049  0.58782752    -0.55000
In131      In  0.85667525  0.35130141  0.52108638     1.36900
C132        C  0.77962798  0.37715103  0.52064125     0.82700
O133        O  0.84714814  0.33459149  0.58745934    -0.55700
O134        O  0.87448729  0.39351601  0.57048772    -0.46600
C135        C  0.92783939  0.31258965  0.52152963     0.75400
O136        O  0.89401226  0.29196161  0.52135177    -0.41500
C137        C  0.86280765  0.36908588  0.44333610     0.80100
O138        O  0.78801879  0.33840948  0.52076778    -0.53300
O139        O  0.87511053  0.39335026  0.47174386    -0.43400
O140        O  0.81041329  0.40148339  0.52068716    -0.49800
C141        C  0.86174848  0.36939183  0.59882957     0.90300
O142        O  0.92430456  0.35165166  0.52153817    -0.51700
O143        O  0.84803004  0.33434411  0.45466441    -0.55000
In144      In  0.85795285  0.52821277  0.34204544     1.39300
C145        C  0.78074404  0.52855460  0.36783729     0.82700
O146        O  0.84872253  0.46162027  0.32588949    -0.55700
O147        O  0.87675098  0.47910232  0.38426962    -0.46600
C148        C  0.92827789  0.52892539  0.30164711     0.75400
O149        O  0.89399751  0.52904696  0.28178862    -0.41500
C150        C  0.86432802  0.60554667  0.36159626     0.80100
O151        O  0.78919242  0.52859500  0.32911156    -0.53300
O152        O  0.87694915  0.57658887  0.38502175    -0.43400
O153        O  0.81152319  0.52829231  0.39214193    -0.49800
C154        C  0.86379375  0.45053951  0.36056192     0.90300
O155        O  0.92557136  0.52819546  0.34074188    -0.51700
O156        O  0.84919269  0.59502306  0.32678104    -0.55000
In157      In  0.48534086  0.35227010  0.15090733     1.36900
C158        C  0.48533452  0.37835602  0.22773010     0.82700
O159        O  0.55119881  0.33391289  0.16150379    -0.55700
O160        O  0.53613632  0.39294295  0.13334614    -0.46600
C161        C  0.48488480  0.31302914  0.08004350     0.75400
O162        O  0.48374206  0.29266423  0.11400593    -0.41500
C163        C  0.40824747  0.37304536  0.14443504     0.80100
O164        O  0.48421874  0.33958246  0.21953439    -0.53300
O165        O  0.43761682  0.39609209  0.13205285    -0.43400
O166        O  0.48629486  0.40256652  0.19687446    -0.49800
C167        C  0.56366766  0.36833879  0.14690117     0.90300
O168        O  0.48637653  0.35207774  0.08331389    -0.51700
O169        O  0.41821315  0.33798823  0.15944278    -0.55000
In170      In  0.30810840  0.53437204  0.14961651     1.36900
C171        C  0.33401940  0.53315753  0.22667592     0.82700
O172        O  0.29193414  0.46769671  0.15853091    -0.55700
O173        O  0.35010064  0.48521016  0.13013757    -0.46600
C174        C  0.26677756  0.53553243  0.07978167     0.75400
O175        O  0.24734654  0.53566639  0.11430222    -0.41500
C176        C  0.32918844  0.61153479  0.14413425     0.80100
O177        O  0.29526330  0.53396451  0.21836986    -0.53300
O178        O  0.35180772  0.58227993  0.13079387    -0.43400
O179        O  0.35824927  0.53306830  0.19585221    -0.49800
C180        C  0.32649138  0.45661388  0.14320554     0.90300
O181        O  0.30589473  0.53484654  0.08203761    -0.51700
O182        O  0.29430558  0.60147348  0.15943261    -0.55000
In183      In  0.49195762  0.70849964  0.15137037     1.36900
C184        C  0.49013735  0.68205743  0.22797899     0.82700
O185        O  0.42566915  0.72626017  0.15982662    -0.55700
O186        O  0.44210802  0.66716028  0.13257223    -0.46600
C187        C  0.49362147  0.74694097  0.08013598     0.75400
O188        O  0.49321728  0.76768112  0.11388420    -0.41500
C189        C  0.56968355  0.68973263  0.14797826     0.80100
O190        O  0.49080099  0.72088535  0.21998048    -0.53300
O191        O  0.54139395  0.66599359  0.13442527    -0.43400
O192        O  0.49040488  0.65794786  0.19702124    -0.49800
C193        C  0.41395169  0.69166679  0.14498666     0.90300
O194        O  0.49332454  0.70788553  0.08378348    -0.51700
O195        O  0.55831986  0.72459817  0.16245597    -0.55000
In196      In  0.66396653  0.52739342  0.15274600     1.36900
C197        C  0.63736426  0.52808148  0.22907887     0.82700
O198        O  0.68366079  0.59290155  0.16278998    -0.55700
O199        O  0.62379916  0.57869290  0.13579838    -0.46600
C200        C  0.70040355  0.52660335  0.08063180     0.75400
O201        O  0.72199560  0.52614615  0.11383776    -0.41500
C202        C  0.64601389  0.44958130  0.14848338     0.80100
O203        O  0.67620686  0.52723765  0.22119632    -0.53300
O204        O  0.62168499  0.47780451  0.13582006    -0.43400
O205        O  0.61324463  0.52847989  0.19809787    -0.49800
C206        C  0.64919661  0.60587050  0.14865156     0.90300
O207        O  0.66142615  0.52746652  0.08519839    -0.51700
O208        O  0.68095187  0.46111831  0.16269997    -0.55000
In209      In  0.48524379  0.16168836  0.69741871     1.36900
C210        C  0.48502631  0.23847207  0.67145631     0.82700
O211        O  0.55135593  0.17198348  0.71477161    -0.55700
O212        O  0.53523883  0.14448959  0.65567482    -0.46600
C213        C  0.48639483  0.09036136  0.73566904     0.75400
O214        O  0.48573122  0.12405769  0.75648380    -0.41500
C215        C  0.40747879  0.15580591  0.67926314     0.80100
O216        O  0.48470767  0.23022465  0.71022815    -0.53300
O217        O  0.43598326  0.14341260  0.65516015    -0.43400
O218        O  0.48531365  0.20766632  0.64715453    -0.49800
C219        C  0.56321488  0.15755563  0.68005831     0.90300
O220        O  0.48631109  0.09409116  0.69662293    -0.51700
O221        O  0.41869074  0.17044230  0.71410249    -0.55000
In222      In  0.66261296  0.16194982  0.52043041     1.36900
C223        C  0.63610400  0.23843735  0.52034822     0.82700
O224        O  0.68059934  0.17164903  0.45439130    -0.55700
O225        O  0.62129021  0.14439777  0.47022612    -0.46600
C226        C  0.70009271  0.09031357  0.52085568     0.75400
O227        O  0.72123732  0.12381352  0.52082926    -0.41500
C228        C  0.64520258  0.15760228  0.59832635     0.80100
O229        O  0.67494031  0.23047841  0.52045365    -0.53300
O230        O  0.62082314  0.14463085  0.57029820    -0.43400
O231        O  0.61197182  0.20747361  0.52020672    -0.49800
C232        C  0.64594754  0.15718095  0.44235592     0.90300
O233        O  0.66106328  0.09436996  0.52071372    -0.51700
O234        O  0.67998199  0.17198992  0.58655560    -0.55000
In235      In  0.30643631  0.16028441  0.51962584     1.36900
C236        C  0.33237842  0.23737177  0.51965652     0.82700
O237        O  0.29020317  0.16987315  0.58618842    -0.55700
O238        O  0.34856059  0.14167026  0.56892097    -0.46600
C239        C  0.26608128  0.08989163  0.51940646     0.75400
O240        O  0.24618139  0.12414961  0.51907039    -0.41500
C241        C  0.32635853  0.15405588  0.44227208     0.80100
O242        O  0.29361698  0.22904723  0.51927552    -0.53300
O243        O  0.34959720  0.14133558  0.47132697    -0.43400
O244        O  0.35661354  0.20653894  0.51993977    -0.49800
C245        C  0.32485844  0.15483605  0.59739616     0.90300
O246        O  0.30517860  0.09266685  0.51992407    -0.51700
O247        O  0.29149095  0.16917293  0.45268125    -0.55000
In248      In  0.48707922  0.16071153  0.34147394     1.36900
C249        C  0.48632134  0.23750396  0.36784479     0.82700
O250        O  0.42033895  0.16924102  0.32551073    -0.55700
O251        O  0.43825770  0.14148442  0.38390634    -0.46600
C252        C  0.48834522  0.09009000  0.30176053     0.75400
O253        O  0.48757604  0.12418540  0.28159578    -0.41500
C254        C  0.56492183  0.15645333  0.35959043     0.80100
O255        O  0.48613735  0.22942105  0.32903800    -0.53300
O256        O  0.53671943  0.14295446  0.38345940    -0.43400
O257        O  0.48681502  0.20655596  0.39195372    -0.49800
C258        C  0.40949216  0.15411404  0.36024874     0.90300
O259        O  0.48835980  0.09311168  0.34085167    -0.51700
O260        O  0.55338896  0.17131645  0.32495731    -0.55000
In261      In  0.11754409  0.53229132  0.34145654     1.36900
C262        C  0.19438082  0.53198769  0.36758126     0.82700
O263        O  0.12749795  0.59876687  0.32489567    -0.55700
O264        O  0.09921287  0.58190843  0.38333001    -0.46600
C265        C  0.04705390  0.53157946  0.30143978     0.75400
O266        O  0.08123496  0.53134467  0.28141393    -0.41500
C267        C  0.11169897  0.45484463  0.36114465     0.80100
O268        O  0.18621702  0.53174874  0.32878867    -0.53300
O269        O  0.09883719  0.48377015  0.38447746    -0.43400
O270        O  0.16350332  0.53239510  0.39176436    -0.49800
C271        C  0.11256400  0.61021401  0.35951938     0.90300
O272        O  0.04993778  0.53242606  0.34052665    -0.51700
O273        O  0.12675800  0.46543571  0.32630231    -0.55000
In274      In  0.11753377  0.35318797  0.52145061     1.36900
C275        C  0.19415717  0.37971959  0.52078666     0.82700
O276        O  0.12660644  0.33760059  0.45469591    -0.55700
O277        O  0.09859150  0.39584644  0.47271637    -0.46600
C278        C  0.04697677  0.31340470  0.52171651     0.75400
O279        O  0.08109430  0.29328193  0.52113823    -0.41500
C280        C  0.11323384  0.37099443  0.59940656     0.80100
O281        O  0.18620278  0.34087871  0.52057065    -0.53300
O282        O  0.09964711  0.39490900  0.57129334    -0.43400
O283        O  0.16316881  0.40376978  0.52134830    -0.49800
C284        C  0.11150863  0.37237755  0.44392311     0.90300
O285        O  0.04994432  0.35250212  0.52222077    -0.51700
O286        O  0.12810623  0.33640793  0.58774130    -0.55000
In287      In  0.11879606  0.53172529  0.69760996     1.36900
C288        C  0.19521267  0.53166865  0.67096300     0.82700
O289        O  0.12878318  0.46560177  0.71526351    -0.55700
O290        O  0.10121783  0.48159163  0.65616403    -0.46600
C291        C  0.04739455  0.53151712  0.73561219     0.75400
O292        O  0.08103678  0.53170937  0.75652486    -0.41500
C293        C  0.11425864  0.60966758  0.67997379     0.80100
O294        O  0.18734704  0.53182579  0.70981596    -0.53300
O295        O  0.10116698  0.58154332  0.65577903    -0.43400
O296        O  0.16420262  0.53149618  0.64690241    -0.49800
C297        C  0.11418128  0.45364875  0.68064504     0.90300
O298        O  0.05120825  0.53160624  0.69656583    -0.51700
O299        O  0.12878401  0.59798964  0.71472106    -0.55000
In300      In  0.11883079  0.70959535  0.52002267     1.36900
C301        C  0.19548208  0.68334620  0.51978785     0.82700
O302        O  0.12888074  0.72656335  0.58632547    -0.55700
O303        O  0.10140418  0.66759231  0.56977307    -0.46600
C304        C  0.04743233  0.74774790  0.52054725     0.75400
O305        O  0.08110443  0.76862324  0.52032067    -0.41500
C306        C  0.11354351  0.69192374  0.44210317     0.80100
O307        O  0.18740832  0.72216311  0.51981507    -0.53300
O308        O  0.10086319  0.66768616  0.47037409    -0.43400
O309        O  0.16457723  0.65916011  0.51981114    -0.49800
C310        C  0.11441377  0.69177129  0.59794233     0.90300
O311        O  0.05123096  0.70870385  0.52047835    -0.51700
O312        O  0.12816781  0.72667701  0.45362896    -0.55000
C313        C  0.57664460  0.52933188  0.34090881     0.02700
C314        C  0.48716737  0.62073669  0.33964629     0.02700
C315        C  0.30705037  0.62192468  0.51950100     0.02700
C316        C  0.30700863  0.53153482  0.61001338     0.02700
C317        C  0.57544184  0.35042586  0.52011992     0.02700
C318        C  0.48472524  0.35024676  0.61038543     0.02700
C319        C  0.39578316  0.53117879  0.33825177     0.02700
C320        C  0.48531077  0.43975920  0.33939832     0.02700
C321        C  0.48512217  0.34910653  0.42949807     0.02700
C322        C  0.39445472  0.34882226  0.51972838     0.02700
C323        C  0.30598526  0.53139486  0.42912696     0.02700
C324        C  0.30592390  0.44097089  0.51966692     0.02700
C325        C  0.48485134  0.44000965  0.70146075     0.02700
C326        C  0.39527455  0.53140702  0.70250173     0.02700
C327        C  0.39671545  0.71300669  0.51954708     0.02700
C328        C  0.48735892  0.71189338  0.42926219     0.02700
C329        C  0.66897358  0.52918588  0.42946786     0.02700
C330        C  0.66799792  0.43879031  0.52005959     0.02700
C331        C  0.66767806  0.52929707  0.61048465     0.02700
C332        C  0.57631433  0.52950337  0.70014232     0.02700
C333        C  0.48701665  0.71097860  0.61022454     0.02700
C334        C  0.48675712  0.62089074  0.70104028     0.02700
C335        C  0.66861021  0.61974987  0.51992540     0.02700
C336        C  0.57763057  0.70975908  0.51987801     0.02700
C337        C  0.60581619  0.67394711  0.51966704    -0.08100
C338        C  0.63259896  0.64768835  0.51963649    -0.09700
C339        C  0.52397447  0.70929662  0.58331146    -0.08100
C340        C  0.55060662  0.70881544  0.55677770    -0.09700
C341        C  0.48632715  0.67516821  0.63837619    -0.08100
C342        C  0.48630774  0.64880797  0.66504283    -0.09700
C343        C  0.54970252  0.56669068  0.69918456    -0.08100
C344        C  0.52337212  0.59352075  0.69947921    -0.09700
C345        C  0.66699622  0.56618878  0.58344240    -0.08100
C346        C  0.66734563  0.59273806  0.55682397    -0.09700
C347        C  0.63154937  0.52926121  0.63828659    -0.08100
C348        C  0.60468063  0.52925148  0.66446292    -0.09700
C349        C  0.66715262  0.46580963  0.55693516    -0.08100
C350        C  0.66699532  0.49238686  0.58350694    -0.09700
C351        C  0.66779997  0.46579137  0.48315292    -0.08100
C352        C  0.66817206  0.49234656  0.45655278    -0.09700
C353        C  0.66832294  0.56615239  0.45641945    -0.08100
C354        C  0.66813604  0.59275098  0.48299243    -0.09700
C355        C  0.52418153  0.71016509  0.45631425    -0.08100
C356        C  0.55069268  0.70930257  0.48293840    -0.09700
C357        C  0.42379528  0.71222512  0.48271767    -0.08100
C358        C  0.45040469  0.71182964  0.45618232    -0.09700
C359        C  0.45013170  0.71092725  0.58316583    -0.08100
C360        C  0.42361057  0.71175728  0.55653097    -0.09700
C361        C  0.42268042  0.56801029  0.70157944    -0.08100
C362        C  0.44955311  0.59429089  0.70104972    -0.09700
C363        C  0.44821635  0.46738815  0.70136684    -0.08100
C364        C  0.42190000  0.49422545  0.70189423    -0.09700
C365        C  0.52204279  0.46660382  0.69997029    -0.08100
C366        C  0.54893776  0.49286657  0.69934485    -0.09700
C367        C  0.30678809  0.49445650  0.45609706    -0.08100
C368        C  0.30679486  0.46788442  0.48269159    -0.09700
C369        C  0.34127083  0.41233119  0.51937723    -0.08100
C370        C  0.36703458  0.38513245  0.51940100    -0.09700
C371        C  0.44818070  0.34939293  0.45641499    -0.08100
C372        C  0.42154336  0.34926066  0.48291558    -0.09700
C373        C  0.48454671  0.38502285  0.40154897    -0.08100
C374        C  0.48450964  0.41164210  0.37517566    -0.09700
C375        C  0.36794886  0.53124090  0.37423177    -0.08100
C376        C  0.34169810  0.53124162  0.40095308    -0.09700
C377        C  0.42237191  0.49397509  0.33906620    -0.08100
C378        C  0.44865557  0.46710716  0.33960468    -0.09700
C379        C  0.48410322  0.38598909  0.63860163    -0.08100
C380        C  0.48407444  0.41220643  0.66539638    -0.09700
C381        C  0.44788546  0.35051582  0.58330171    -0.08100
C382        C  0.42135914  0.34987221  0.55668464    -0.09700
C383        C  0.60421359  0.38575623  0.51987647    -0.08100
C384        C  0.63155037  0.41143216  0.51982754    -0.09700
C385        C  0.54852819  0.35124416  0.48314718    -0.08100
C386        C  0.52199172  0.35068362  0.45652586    -0.09700
C387        C  0.52174560  0.35171626  0.58352662    -0.08100
C388        C  0.54841293  0.35183636  0.55701429    -0.09700
C389        C  0.36790379  0.53148042  0.66612379    -0.08100
C390        C  0.34229710  0.53146646  0.63876053    -0.09700
C391        C  0.30800985  0.49457039  0.58309968    -0.08100
C392        C  0.30758319  0.46796547  0.55654862    -0.09700
C393        C  0.34274182  0.65015435  0.51924021    -0.08100
C394        C  0.36888510  0.67699722  0.51927424    -0.09700
C395        C  0.30725305  0.56831067  0.45607620    -0.08100
C396        C  0.30766938  0.59491932  0.48261320    -0.09700
C397        C  0.30827203  0.59500033  0.55644322    -0.08100
C398        C  0.30831348  0.56844004  0.58303948    -0.09700
C399        C  0.48670309  0.64905423  0.37527235    -0.08100
C400        C  0.48672442  0.67587610  0.40143925    -0.09700
C401        C  0.44996715  0.59413797  0.33985655    -0.08100
C402        C  0.42314238  0.56780965  0.33937998    -0.09700
C403        C  0.60532563  0.52911476  0.37629370    -0.08100
C404        C  0.63262577  0.52914736  0.40199616    -0.09700
C405        C  0.54931686  0.49267056  0.34185241    -0.08100
C406        C  0.52247502  0.46636250  0.34113005    -0.09700
C407        C  0.55006784  0.56653229  0.34193604    -0.08100
C408        C  0.52377834  0.59339365  0.34149379    -0.09700
C409        C  0.26889268  0.64701426  0.51972047    -0.08100
C410        C  0.23681425  0.66645705  0.51976340    -0.09700
C411        C  0.11465016  0.65163743  0.66618419    -0.08100
C412        C  0.11471758  0.67794503  0.63989618    -0.09700
C413        C  0.23645717  0.53169693  0.65394484    -0.08100
C414        C  0.26860038  0.53167652  0.63464973    -0.09700
C415        C  0.11389541  0.38499366  0.64128925    -0.08100
C416        C  0.11423875  0.41153027  0.66733246    -0.09700
C417        C  0.23543365  0.39678263  0.52040090    -0.08100
C418        C  0.26752092  0.41622938  0.52008951    -0.09700
C419        C  0.11131887  0.41321009  0.37589501    -0.08100
C420        C  0.11123294  0.38695696  0.40223190    -0.09700
C421        C  0.11295626  0.65206874  0.37366025    -0.08100
C422        C  0.11331431  0.67821337  0.40010680    -0.09700
C423        C  0.23574782  0.53178512  0.38447981    -0.08100
C424        C  0.26780430  0.53162112  0.40400199    -0.09700
C425        C  0.48601151  0.27887147  0.38480149    -0.08100
C426        C  0.48572457  0.31097851  0.40426068    -0.09700
C427        C  0.34125526  0.15352313  0.40070299    -0.08100
C428        C  0.36772162  0.15352091  0.37458455    -0.09700
C429        C  0.34919820  0.27884730  0.51978733    -0.08100
C430        C  0.36878732  0.31091271  0.51987709    -0.09700
C431        C  0.63278113  0.15722890  0.40021138    -0.08100
C432        C  0.60677554  0.15698243  0.37364806    -0.09700
C433        C  0.61919865  0.27974199  0.52041032    -0.08100
C434        C  0.60004038  0.31197621  0.52038902    -0.09700
C435        C  0.36556038  0.15529395  0.66534293    -0.08100
C436        C  0.33913432  0.15494842  0.63918759    -0.09700
C437        C  0.60524418  0.15796313  0.66654214    -0.08100
C438        C  0.63158657  0.15797250  0.64031752    -0.09700
C439        C  0.48510720  0.27989031  0.65475188    -0.08100
C440        C  0.48511630  0.31206617  0.63545785    -0.09700
C441        C  0.62045896  0.52859002  0.27034006    -0.08100
C442        C  0.60131351  0.52903224  0.30255178    -0.09700
C443        C  0.61142014  0.67530477  0.14887391    -0.08100
C444        C  0.63700290  0.64832137  0.14908230    -0.09700
C445        C  0.48913535  0.66509240  0.26928733    -0.08100
C446        C  0.48826384  0.64570599  0.30140130    -0.09700
C447        C  0.34480657  0.65285234  0.14410960    -0.08100
C448        C  0.37182309  0.67840690  0.14437308    -0.09700
C449        C  0.35085181  0.53236224  0.26811450    -0.08100
C450        C  0.37041718  0.53171079  0.30017065    -0.09700
C451        C  0.34076398  0.41481873  0.14302961    -0.08100
C452        C  0.36679200  0.38826468  0.14350432    -0.09700
C453        C  0.60582579  0.38146388  0.14787977    -0.08100
C454        C  0.63226421  0.40760570  0.14848172    -0.09700
C455        C  0.48552704  0.39518522  0.26912254    -0.08100
C456        C  0.48565600  0.41461422  0.30123293    -0.09700
C457        C  0.96887503  0.52980310  0.28296176    -0.08100
C458        C  0.00638306  0.53068866  0.28292060    -0.09700
C459        C  0.70697659  0.52902692  0.40389470    -0.08100
C460        C  0.73918391  0.52882145  0.38451486    -0.09700
C461        C  0.96878700  0.29469886  0.52165821    -0.08100
C462        C  0.00629033  0.29493687  0.52170335    -0.09700
C463        C  0.86354355  0.38272886  0.40136282    -0.08100
C464        C  0.86390337  0.40877422  0.37485070    -0.09700
C465        C  0.70588368  0.41311915  0.52034794    -0.08100
C466        C  0.73809145  0.39378725  0.52048520    -0.09700
C467        C  0.96888529  0.76508440  0.52122120    -0.08100
C468        C  0.00638224  0.76538210  0.52089165    -0.09700
C469        C  0.86489012  0.67335823  0.40258712    -0.08100
C470        C  0.86495051  0.64716641  0.37623373    -0.09700
C471        C  0.73907168  0.66418559  0.52060693    -0.08100
C472        C  0.70680518  0.64495300  0.52031486    -0.09700
C473        C  0.00637165  0.53106882  0.75325825    -0.08100
C474        C  0.96889049  0.53051539  0.75333151    -0.09700
C475        C  0.86177737  0.40963414  0.66692317    -0.08100
C476        C  0.86180137  0.38327719  0.64072502    -0.09700
C477        C  0.86204287  0.67592485  0.64152073    -0.08100
C478        C  0.86167724  0.64949384  0.66764113    -0.09700
C479        C  0.73801387  0.52935583  0.65501947    -0.08100
C480        C  0.70576156  0.52931997  0.63579944    -0.09700
C481        C  0.71774201  0.01173089  0.52073703    -0.08100
C482        C  0.71750374  0.04920433  0.52092803    -0.09700
C483        C  0.62189674  0.78011286  0.51997045    -0.08100
C484        C  0.60271669  0.74789193  0.52005557    -0.09700
C485        C  0.48725270  0.04936345  0.75338904    -0.08100
C486        C  0.48797126  0.01187693  0.75336493    -0.09700
C487        C  0.60844516  0.90290385  0.66623332    -0.08100
C488        C  0.63455673  0.90243392  0.63978106    -0.09700
C489        C  0.48765958  0.74915326  0.63533323    -0.08100
C490        C  0.48783322  0.78135368  0.65460415    -0.09700
C491        C  0.24746127  0.04923778  0.51914224    -0.08100
C492        C  0.24774847  0.01170931  0.51896215    -0.09700
C493        C  0.34256901  0.90743099  0.63797314    -0.08100
C494        C  0.36906390  0.90684550  0.66404132    -0.09700
C495        C  0.35187038  0.78326095  0.51936347    -0.08100
C496        C  0.37139237  0.75115243  0.51959171    -0.09700
C497        C  0.48917317  0.04937391  0.28336148    -0.08100
C498        C  0.48984311  0.01186780  0.28330223    -0.09700
C499        C  0.34406498  0.90843829  0.40001816    -0.08100
C500        C  0.37066654  0.90806886  0.37404726    -0.09700
C501        C  0.60985922  0.90327464  0.37254381    -0.08100
C502        C  0.63576965  0.90270227  0.39920229    -0.09700
C503        C  0.48853019  0.78212552  0.38450034    -0.08100
C504        C  0.48814442  0.74999855  0.40395292    -0.09700
C505        C  0.71730062  0.52624440  0.00185803    -0.08100
C506        C  0.71731371  0.52621731  0.03932559    -0.09700
C507        C  0.62034264  0.52878883  0.77068066    -0.08100
C508        C  0.60120699  0.52922519  0.73842446    -0.09700
C509        C  0.49400496  0.76470742  0.00166655    -0.08100
C510        C  0.49412628  0.76473737  0.03916341    -0.09700
C511        C  0.61090638  0.67524565  0.89274540    -0.08100
C512        C  0.63657195  0.64835933  0.89266953    -0.09700
C513        C  0.48869016  0.66545094  0.77130847    -0.08100
C514        C  0.48782758  0.64614991  0.73912817    -0.09700
C515        C  0.24764123  0.53602150  0.03937568    -0.08100
C516        C  0.24756183  0.53601720  0.00184503    -0.09700
C517        C  0.34434101  0.65275202  0.89732763    -0.08100
C518        C  0.37138238  0.67826314  0.89704268    -0.09700
C519        C  0.36959276  0.53191889  0.74044156    -0.08100
C520        C  0.35006588  0.53251335  0.77256028    -0.09700
C521        C  0.48428511  0.29495741  0.00171465    -0.08100
C522        C  0.48440709  0.29488595  0.03921820    -0.09700
C523        C  0.34010113  0.41482926  0.89839999    -0.08100
C524        C  0.36615562  0.38831675  0.89797843    -0.09700
C525        C  0.60516643  0.38187639  0.89379905    -0.08100
C526        C  0.63168251  0.40792241  0.89329139    -0.09700
C527        C  0.48494045  0.39532669  0.77172512    -0.08100
C528        C  0.48511141  0.41466059  0.73953443    -0.09700
loop_ 
_geom_bond_atom_site_label_1 
_geom_bond_atom_site_label_2 
_geom_bond_distance 
_geom_bond_site_symmetry_2 
_ccdc_geom_bond_type 
In1           O3   2.230       .  S
In1           O4   2.177       .  S
In1          O12   2.181       .  S
In1           O6   2.262       .  S
In1           O8   2.253       .  S
In1           O9   2.174       .  S
In1          O10   2.201       .  S
In1          O13   2.230       .  S
C2            O8   1.279       .  A
C2           O10   1.266       .  A
C2          C527   1.443       .  S
O3           C11   1.271       .  A
O4           C11   1.269       .  A
C5           O12   1.265       .  A
C5            O6   1.278       .  A
C5          C521   1.441   1_556  S
C7            O9   1.269       .  A
C7           O13   1.271       .  A
C7          C525   1.424       .  S
C11         C524   1.424       .  S
In14         O16   2.231       .  S
In14         O17   2.177       .  S
In14         O25   2.182       .  S
In14         O19   2.268       .  S
In14         O21   2.259       .  S
In14         O22   2.177       .  S
In14         O23   2.203       .  S
In14         O26   2.231       .  S
C15          O21   1.279       .  A
C15          O23   1.265       .  A
C15         C520   1.445       .  S
O16          C24   1.271       .  A
O17          C24   1.268       .  A
C18          O25   1.264       .  A
C18          O19   1.278       .  A
C18         C516   1.442   1_556  S
C20          O22   1.268       .  A
C20          O26   1.271       .  A
C20         C523   1.424       .  S
C24         C517   1.424       .  S
In27         O29   2.230       .  S
In27         O30   2.173       .  S
In27         O38   2.181       .  S
In27         O32   2.260       .  S
In27         O34   2.251       .  S
In27         O35   2.175       .  S
In27         O36   2.200       .  S
In27         O39   2.229       .  S
C28          O34   1.279       .  A
C28          O36   1.266       .  A
C28         C513   1.442       .  S
O29          C37   1.272       .  A
O30          C37   1.269       .  A
C31          O38   1.265       .  A
C31          O32   1.278       .  A
C31         C509   1.441   1_556  S
C33          O35   1.269       .  A
C33          O39   1.272       .  A
C33         C518   1.424       .  S
C37         C511   1.424       .  S
In40         O42   2.229       .  S
In40         O43   2.171       .  S
In40         O51   2.181       .  S
In40         O45   2.255       .  S
In40         O47   2.246       .  S
In40         O48   2.171       .  S
In40         O49   2.198       .  S
In40         O52   2.229       .  S
C41          O47   1.279       .  A
C41          O49   1.267       .  A
C41         C507   1.440       .  S
O42          C50   1.272       .  A
O43          C50   1.269       .  A
C44          O51   1.266       .  A
C44          O45   1.278       .  A
C44         C505   1.440   1_556  S
C46          O48   1.269       .  A
C46          O52   1.272       .  A
C46         C512   1.424       .  S
C50         C526   1.424       .  S
In53         O55   2.231       .  S
In53         O56   2.174       .  S
In53         O64   2.181       .  S
In53         O58   2.263       .  S
In53         O60   2.253       .  S
In53         O61   2.176       .  S
In53         O62   2.201       .  S
In53         O65   2.230       .  S
C54          O60   1.279       .  A
C54          O62   1.266       .  A
C54         C503   1.443       .  S
O55          C63   1.272       .  A
O56          C63   1.269       .  A
C57          O64   1.265       .  A
C57          O58   1.278       .  A
C57         C498   1.442   1_565  S
C59          O61   1.269       .  A
C59          O65   1.271       .  A
C59         C500   1.424       .  S
C63         C501   1.425       .  S
In66         O68   2.231       .  S
In66         O69   2.178       .  S
In66         O77   2.181       .  S
In66         O71   2.267       .  S
In66         O73   2.257       .  S
In66         O74   2.177       .  S
In66         O75   2.202       .  S
In66         O78   2.231       .  S
C67          O73   1.279       .  A
C67          O75   1.265       .  A
C67         C495   1.444       .  S
O68          C76   1.271       .  A
O69          C76   1.268       .  A
C70          O77   1.264       .  A
C70          O71   1.278       .  A
C70         C492   1.442   1_565  S
C72          O74   1.268       .  A
C72          O78   1.271       .  A
C72         C493   1.424       .  S
C76         C499   1.424       .  S
In79         O81   2.230       .  S
In79         O82   2.175       .  S
In79         O90   2.181       .  S
In79         O84   2.260       .  S
In79         O86   2.250       .  S
In79         O87   2.173       .  S
In79         O88   2.198       .  S
In79         O91   2.230       .  S
C80          O86   1.279       .  A
C80          O88   1.266       .  A
C80         C490   1.441       .  S
O81          C89   1.271       .  A
O82          C89   1.269       .  A
C83          O90   1.265       .  A
C83          O84   1.278       .  A
C83         C486   1.441   1_565  S
C85          O87   1.269       .  A
C85          O91   1.272       .  A
C85         C487   1.424       .  S
C89         C494   1.424       .  S
In92         O94   2.229       .  S
In92         O95   2.171       .  S
In92        O103   2.181       .  S
In92         O97   2.255       .  S
In92         O99   2.245       .  S
In92        O100   2.172       .  S
In92        O101   2.196       .  S
In92        O104   2.231       .  S
C93          O99   1.279       .  A
C93         O101   1.267       .  A
C93         C483   1.440       .  S
O94         C102   1.272       .  A
O95         C102   1.270       .  A
C96         O103   1.266       .  A
C96          O97   1.278       .  A
C96         C481   1.440   1_565  S
C98         O100   1.269       .  A
C98         O104   1.272       .  A
C98         C502   1.425       .  S
C102        C488   1.424       .  S
In105       O107   2.228       .  S
In105       O108   2.172       .  S
In105       O116   2.181       .  S
In105       O110   2.258       .  S
In105       O112   2.250       .  S
In105       O113   2.173       .  S
In105       O114   2.201       .  S
In105       O117   2.229       .  S
C106        O112   1.279       .  A
C106        O114   1.266       .  A
C106        C479   1.442       .  S
O107        C115   1.272       .  A
O108        C115   1.269       .  A
C109        O116   1.266       .  A
C109        O110   1.278       .  A
C109        C474   1.441       .  S
C111        O113   1.269       .  A
C111        O117   1.272       .  A
C111        C475   1.424       .  S
C115        C478   1.424       .  S
In118       O120   2.228       .  S
In118       O121   2.175       .  S
In118       O129   2.181       .  S
In118       O123   2.262       .  S
In118       O125   2.253       .  S
In118       O126   2.174       .  S
In118       O127   2.202       .  S
In118       O130   2.230       .  S
C119        O125   1.279       .  A
C119        O127   1.266       .  A
C119        C471   1.443       .  S
O120        C128   1.271       .  A
O121        C128   1.269       .  A
C122        O129   1.265       .  A
C122        O123   1.278       .  A
C122        C467   1.441       .  S
C124        O126   1.269       .  A
C124        O130   1.271       .  A
C124        C477   1.424       .  S
C128        C469   1.423       .  S
In131       O133   2.229       .  S
In131       O134   2.174       .  S
In131       O142   2.182       .  S
In131       O136   2.262       .  S
In131       O138   2.253       .  S
In131       O139   2.174       .  S
In131       O140   2.202       .  S
In131       O143   2.229       .  S
C132        O138   1.279       .  A
C132        O140   1.266       .  A
C132        C466   1.443       .  S
O133        C141   1.271       .  A
O134        C141   1.269       .  A
C135        O142   1.265       .  A
C135        O136   1.278       .  A
C135        C461   1.441       .  S
C137        O139   1.269       .  A
C137        O143   1.271       .  A
C137        C463   1.424       .  S
C141        C476   1.424       .  S
In144       O146   2.230       .  S
In144       O147   2.175       .  S
In144       O155   2.182       .  S
In144       O149   2.265       .  S
In144       O151   2.257       .  S
In144       O152   2.176       .  S
In144       O153   2.203       .  S
In144       O156   2.229       .  S
C145        O151   1.279       .  A
C145        O153   1.265       .  A
C145        C460   1.445       .  S
O146        C154   1.271       .  A
O147        C154   1.268       .  A
C148        O155   1.264       .  A
C148        O149   1.278       .  A
C148        C457   1.442       .  S
C150        O152   1.269       .  A
C150        O156   1.271       .  A
C150        C470   1.423       .  S
C154        C464   1.424       .  S
In157       O159   2.232       .  S
In157       O160   2.174       .  S
In157       O168   2.181       .  S
In157       O162   2.262       .  S
In157       O164   2.252       .  S
In157       O165   2.177       .  S
In157       O166   2.198       .  S
In157       O169   2.231       .  S
C158        O164   1.279       .  A
C158        O166   1.266       .  A
C158        C455   1.442       .  S
O159        C167   1.272       .  A
O160        C167   1.269       .  A
C161        O168   1.265       .  A
C161        O162   1.278       .  A
C161        C522   1.441       .  S
C163        O165   1.269       .  A
C163        O169   1.271       .  A
C163        C452   1.425       .  S
C167        C453   1.425       .  S
In170       O172   2.232       .  S
In170       O173   2.178       .  S
In170       O181   2.181       .  S
In170       O175   2.267       .  S
In170       O177   2.256       .  S
In170       O178   2.178       .  S
In170       O179   2.201       .  S
In170       O182   2.232       .  S
C171        O177   1.279       .  A
C171        O179   1.265       .  A
C171        C449   1.443       .  S
O172        C180   1.271       .  A
O173        C180   1.268       .  A
C174        O181   1.264       .  A
C174        O175   1.278       .  A
C174        C515   1.442       .  S
C176        O178   1.268       .  A
C176        O182   1.271       .  A
C176        C447   1.425       .  S
C180        C451   1.425       .  S
In183       O185   2.230       .  S
In183       O186   2.175       .  S
In183       O194   2.181       .  S
In183       O188   2.260       .  S
In183       O190   2.250       .  S
In183       O191   2.173       .  S
In183       O192   2.198       .  S
In183       O195   2.232       .  S
C184        O190   1.279       .  A
C184        O192   1.266       .  A
C184        C445   1.441       .  S
O185        C193   1.272       .  A
O186        C193   1.269       .  A
C187        O194   1.265       .  A
C187        O188   1.278       .  A
C187        C510   1.441       .  S
C189        O191   1.269       .  A
C189        O195   1.272       .  A
C189        C443   1.425       .  S
C193        C448   1.425       .  S
In196       O198   2.230       .  S
In196       O199   2.172       .  S
In196       O207   2.181       .  S
In196       O201   2.254       .  S
In196       O203   2.243       .  S
In196       O204   2.172       .  S
In196       O205   2.195       .  S
In196       O208   2.230       .  S
C197        O203   1.279       .  A
C197        O205   1.267       .  A
C197        C441   1.439       .  S
O198        C206   1.272       .  A
O199        C206   1.270       .  A
C200        O207   1.266       .  A
C200        O201   1.278       .  A
C200        C506   1.440       .  S
C202        O204   1.269       .  A
C202        O208   1.272       .  A
C202        C454   1.425       .  S
C206        C444   1.425       .  S
In209       O211   2.230       .  S
In209       O212   2.173       .  S
In209       O220   2.181       .  S
In209       O214   2.259       .  S
In209       O216   2.249       .  S
In209       O217   2.175       .  S
In209       O218   2.197       .  S
In209       O221   2.231       .  S
C210        O216   1.279       .  A
C210        O218   1.266       .  A
C210        C439   1.441       .  S
O211        C219   1.272       .  A
O212        C219   1.269       .  A
C213        O220   1.265       .  A
C213        O214   1.278       .  A
C213        C485   1.441       .  S
C215        O217   1.269       .  A
C215        O221   1.272       .  A
C215        C435   1.425       .  S
C219        C437   1.424       .  S
In222       O224   2.230       .  S
In222       O225   2.173       .  S
In222       O233   2.181       .  S
In222       O227   2.256       .  S
In222       O229   2.246       .  S
In222       O230   2.172       .  S
In222       O231   2.197       .  S
In222       O234   2.229       .  S
C223        O229   1.279       .  A
C223        O231   1.266       .  A
C223        C433   1.440       .  S
O224        C232   1.272       .  A
O225        C232   1.269       .  A
C226        O233   1.266       .  A
C226        O227   1.278       .  A
C226        C482   1.440       .  S
C228        O230   1.269       .  A
C228        O234   1.272       .  A
C228        C438   1.424       .  S
C232        C431   1.424       .  S
In235       O237   2.232       .  S
In235       O238   2.176       .  S
In235       O246   2.182       .  S
In235       O240   2.266       .  S
In235       O242   2.256       .  S
In235       O243   2.177       .  S
In235       O244   2.201       .  S
In235       O247   2.231       .  S
C236        O242   1.279       .  A
C236        O244   1.265       .  A
C236        C429   1.444       .  S
O237        C245   1.271       .  A
O238        C245   1.268       .  A
C239        O246   1.264       .  A
C239        O240   1.278       .  A
C239        C491   1.442       .  S
C241        O243   1.268       .  A
C241        O247   1.271       .  A
C241        C427   1.425       .  S
C245        C436   1.425       .  S
In248       O250   2.231       .  S
In248       O251   2.177       .  S
In248       O259   2.181       .  S
In248       O253   2.263       .  S
In248       O255   2.253       .  S
In248       O256   2.174       .  S
In248       O257   2.200       .  S
In248       O260   2.231       .  S
C249        O255   1.279       .  A
C249        O257   1.266       .  A
C249        C425   1.442       .  S
O250        C258   1.271       .  A
O251        C258   1.269       .  A
C252        O259   1.265       .  A
C252        O253   1.278       .  A
C252        C497   1.442       .  S
C254        O256   1.269       .  A
C254        O260   1.271       .  A
C254        C432   1.424       .  S
C258        C428   1.425       .  S
In261       O263   2.233       .  S
In261       O264   2.176       .  S
In261       O272   2.181       .  S
In261       O266   2.264       .  S
In261       O268   2.253       .  S
In261       O269   2.177       .  S
In261       O270   2.198       .  S
In261       O273   2.231       .  S
C262        O268   1.279       .  A
C262        O270   1.265       .  A
C262        C423   1.441       .  S
O263        C271   1.271       .  A
O264        C271   1.268       .  A
C265        O272   1.265       .  A
C265        O266   1.278       .  A
C265        C458   1.442       .  S
C267        O269   1.269       .  A
C267        O273   1.271       .  A
C267        C419   1.425       .  S
C271        C421   1.425       .  S
In274       O276   2.231       .  S
In274       O277   2.177       .  S
In274       O285   2.180       .  S
In274       O279   2.262       .  S
In274       O281   2.251       .  S
In274       O282   2.175       .  S
In274       O283   2.198       .  S
In274       O286   2.232       .  S
C275        O281   1.279       .  A
C275        O283   1.265       .  A
C275        C417   1.441       .  S
O276        C284   1.271       .  A
O277        C284   1.269       .  A
C278        O285   1.265       .  A
C278        O279   1.278       .  A
C278        C462   1.441       .  S
C280        O282   1.269       .  A
C280        O286   1.271       .  A
C280        C415   1.425       .  S
C284        C420   1.425       .  S
In287       O289   2.231       .  S
In287       O290   2.174       .  S
In287       O298   2.180       .  S
In287       O292   2.257       .  S
In287       O294   2.246       .  S
In287       O295   2.174       .  S
In287       O296   2.196       .  S
In287       O299   2.231       .  S
C288        O294   1.279       .  A
C288        O296   1.266       .  A
C288        C413   1.439       .  S
O289        C297   1.272       .  A
O290        C297   1.269       .  A
C291        O298   1.266       .  A
C291        O292   1.278       .  A
C291        C473   1.441       .  S
C293        O295   1.269       .  A
C293        O299   1.272       .  A
C293        C411   1.425       .  S
C297        C416   1.425       .  S
In300       O302   2.232       .  S
In300       O303   2.174       .  S
In300       O311   2.181       .  S
In300       O305   2.260       .  S
In300       O307   2.249       .  S
In300       O308   2.175       .  S
In300       O309   2.197       .  S
In300       O312   2.232       .  S
C301        O307   1.279       .  A
C301        O309   1.266       .  A
C301        C410   1.440       .  S
O302        C310   1.272       .  A
O303        C310   1.269       .  A
C304        O311   1.265       .  A
C304        O305   1.278       .  A
C304        C468   1.441       .  S
C306        O308   1.269       .  A
C306        O312   1.272       .  A
C306        C422   1.425       .  S
C310        C412   1.425       .  S
C313        C403   1.469       .  S
C313        C405   1.475       .  S
C313        C407   1.475       .  S
C313        C442   1.471       .  S
C314        C399   1.468       .  S
C314        C401   1.475       .  S
C314        C408   1.475       .  S
C314        C446   1.474       .  S
C315        C393   1.468       .  S
C315        C396   1.475       .  S
C315        C397   1.475       .  S
C315        C409   1.473       .  S
C316        C390   1.468       .  S
C316        C391   1.475       .  S
C316        C398   1.475       .  S
C316        C414   1.472       .  S
C317        C383   1.470       .  S
C317        C385   1.476       .  S
C317        C388   1.476       .  S
C317        C434   1.472       .  S
C318        C379   1.469       .  S
C318        C381   1.475       .  S
C318        C387   1.476       .  S
C318        C440   1.473       .  S
C319        C375   1.467       .  S
C319        C377   1.475       .  S
C319        C402   1.475       .  S
C319        C450   1.476       .  S
C320        C374   1.468       .  S
C320        C378   1.475       .  S
C320        C406   1.475       .  S
C320        C456   1.475       .  S
C321        C371   1.474       .  S
C321        C373   1.468       .  S
C321        C386   1.476       .  S
C321        C426   1.475       .  S
C322        C370   1.468       .  S
C322        C372   1.474       .  S
C322        C382   1.475       .  S
C322        C430   1.477       .  S
C323        C367   1.476       .  S
C323        C376   1.467       .  S
C323        C395   1.475       .  S
C323        C424   1.474       .  S
C324        C368   1.476       .  S
C324        C369   1.468       .  S
C324        C392   1.475       .  S
C324        C418   1.474       .  S
C325        C363   1.475       .  S
C325        C365   1.476       .  S
C325        C380   1.469       .  S
C325        C528   1.476       .  S
C326        C361   1.475       .  S
C326        C364   1.475       .  S
C326        C389   1.469       .  S
C326        C519   1.478       .  S
C327        C357   1.475       .  S
C327        C360   1.476       .  S
C327        C394   1.468       .  S
C327        C496   1.477       .  S
C328        C355   1.475       .  S
C328        C358   1.475       .  S
C328        C400   1.468       .  S
C328        C504   1.476       .  S
C329        C352   1.475       .  S
C329        C353   1.476       .  S
C329        C404   1.470       .  S
C329        C459   1.478       .  S
C330        C349   1.475       .  S
C330        C351   1.475       .  S
C330        C384   1.470       .  S
C330        C465   1.476       .  S
C331        C345   1.476       .  S
C331        C347   1.471       .  S
C331        C350   1.475       .  S
C331        C480   1.475       .  S
C332        C343   1.475       .  S
C332        C348   1.470       .  S
C332        C366   1.476       .  S
C332        C508   1.473       .  S
C333        C339   1.476       .  S
C333        C341   1.470       .  S
C333        C359   1.476       .  S
C333        C489   1.474       .  S
C334        C342   1.470       .  S
C334        C344   1.476       .  S
C334        C362   1.475       .  S
C334        C514   1.475       .  S
C335        C338   1.470       .  S
C335        C346   1.476       .  S
C335        C354   1.476       .  S
C335        C472   1.476       .  S
C336        C337   1.470       .  S
C336        C340   1.476       .  S
C336        C356   1.475       .  S
C336        C484   1.472       .  S
C337        C338   1.210       .  T
C339        C340   1.213       .  T
C341        C342   1.210       .  T
C343        C344   1.213       .  T
C345        C346   1.213       .  T
C347        C348   1.210       .  T
C349        C350   1.212       .  T
C351        C352   1.212       .  T
C353        C354   1.213       .  T
C355        C356   1.212       .  T
C357        C358   1.212       .  T
C359        C360   1.213       .  T
C361        C362   1.213       .  T
C363        C364   1.213       .  T
C365        C366   1.213       .  T
C367        C368   1.213       .  T
C369        C370   1.209       .  T
C371        C372   1.212       .  T
C373        C374   1.209       .  T
C375        C376   1.208       .  T
C377        C378   1.213       .  T
C379        C380   1.209       .  T
C381        C382   1.212       .  T
C383        C384   1.210       .  T
C385        C386   1.213       .  T
C387        C388   1.213       .  T
C389        C390   1.209       .  T
C391        C392   1.213       .  T
C393        C394   1.209       .  T
C395        C396   1.212       .  T
C397        C398   1.212       .  T
C399        C400   1.209       .  T
C401        C402   1.213       .  T
C403        C404   1.210       .  T
C405        C406   1.213       .  T
C407        C408   1.213       .  T
C409        C410   1.210       .  T
C411        C412   1.200       .  T
C413        C414   1.209       .  T
C415        C416   1.200       .  T
C417        C418   1.210       .  T
C419        C420   1.200       .  T
C421        C422   1.200       .  T
C423        C424   1.211       .  T
C425        C426   1.211       .  T
C427        C428   1.199       .  T
C429        C430   1.212       .  T
C431        C432   1.199       .  T
C433        C434   1.210       .  T
C435        C436   1.199       .  T
C437        C438   1.199       .  T
C439        C440   1.210       .  T
C441        C442   1.209       .  T
C443        C444   1.199       .  T
C445        C446   1.210       .  T
C447        C448   1.200       .  T
C449        C450   1.212       .  T
C451        C452   1.200       .  T
C453        C454   1.199       .  T
C455        C456   1.211       .  T
C457        C458   1.210   1_655  T
C459        C460   1.213       .  T
C461        C462   1.210   1_655  T
C463        C464   1.199       .  T
C465        C466   1.212       .  T
C467        C468   1.210   1_655  T
C469        C470   1.199       .  T
C471        C472   1.212       .  T
C473        C474   1.209   1_455  T
C475        C476   1.199       .  T
C477        C478   1.199       .  T
C479        C480   1.211       .  T
C481        C482   1.209       .  T
C483        C484   1.210       .  T
C485        C486   1.209       .  T
C487        C488   1.199       .  T
C489        C490   1.211       .  T
C491        C492   1.211       .  T
C493        C494   1.199       .  T
C495        C496   1.212       .  T
C497        C498   1.210       .  T
C499        C500   1.199       .  T
C501        C502   1.199       .  T
C503        C504   1.212       .  T
C505        C506   1.209       .  T
C507        C508   1.210       .  T
C509        C510   1.210       .  T
C511        C512   1.199       .  T
C513        C514   1.211       .  T
C515        C516   1.211       .  T
C517        C518   1.199       .  T
C519        C520   1.213       .  T
C521        C522   1.210       .  T
C523        C524   1.199       .  T
C525        C526   1.199       .  T
C527        C528   1.211       .  T
