geometry optimzed in LAMMPS
_audit_creation_date              2020-11-30 
_audit_creation_method            'lammps2cif' 
_symmetry_space_group_name_H-M    'P1' 
_symmetry_Int_Tables_number       1 
_symmetry_cell_setting            triclinic 
loop_ 
_symmetry_equiv_pos_as_xyz 
  x,y,z 
_cell_length_a                    45.11601386 
_cell_length_b                    44.90891089498013 
_cell_length_c                    44.97395136645184 
_cell_angle_alpha                 90.12947549201277 
_cell_angle_beta                  89.96408092963891 
_cell_angle_gamma                 90.06545489161518 
loop_ 
_atom_site_label 
_atom_site_type_symbol 
_atom_site_fract_x 
_atom_site_fract_y 
_atom_site_fract_z 
_atom_site_charge 
C1          C  0.78854036  0.76437135  0.74324341     0.79900
N2          N  0.78697014  0.74490627  0.76624851    -0.78400
C3          C  0.76499891  0.74737091  0.78674425     0.82400
N4          N  0.74501032  0.76976663  0.78456123    -0.78300
C5          C  0.74648475  0.78944400  0.76182440     0.82500
N6          N  0.76848372  0.78687679  0.74134092    -0.80000
C7          C  0.25125645  0.77441162  0.30416180     0.79900
N8          N  0.24794025  0.79326837  0.28075945    -0.78400
C9          C  0.26742855  0.81585110  0.27622450     0.82400
N10         N  0.29065399  0.81933317  0.29515397    -0.78300
C11         C  0.29422310  0.80070048  0.31866816     0.82500
N12         N  0.27469317  0.77795155  0.32285820    -0.80000
C13         C  0.79999503  0.75440117  0.27142258     0.79900
N14         N  0.77626341  0.75066405  0.28984836    -0.78400
C15         C  0.77220426  0.76908285  0.31362449     0.82400
N16         N  0.79170279  0.79169949  0.31848607    -0.78300
C17         C  0.81542386  0.79552480  0.30026638     0.82500
N18         N  0.81924513  0.77702546  0.27664164    -0.80000
C19         C  0.29253001  0.26890409  0.25025571     0.79900
N20         N  0.29045831  0.25124791  0.27467690    -0.78400
C21         C  0.26808440  0.25517895  0.29458898     0.82400
N22         N  0.24815537  0.27739856  0.29022267    -0.78300
C23         C  0.25012576  0.29535560  0.26595819     0.82500
N24         N  0.27258661  0.29123444  0.24628815    -0.80000
C25         C  0.79660873  0.31159455  0.30198149     0.79900
N26         N  0.77483041  0.31540955  0.28145414    -0.78400
C27         C  0.77228179  0.29644348  0.25809552     0.82400
N28         N  0.79139359  0.27316822  0.25563190    -0.78300
C29         C  0.81325054  0.26914166  0.27601447     0.82500
N30         N  0.81567892  0.28833599  0.29931887    -0.80000
C31         C  0.75425735  0.27464131  0.80106634     0.79900
N32         N  0.77772101  0.27868955  0.81960917    -0.78400
C33         C  0.79614674  0.30242864  0.81616989     0.82400
N34         N  0.79114634  0.32191649  0.79362742    -0.78300
C35         C  0.76764151  0.31812250  0.77497470     0.82500
N36         N  0.74951881  0.29423318  0.77856808    -0.80000
C37         C  0.30075542  0.81501467  0.79882391     0.79900
N38         N  0.27780430  0.81758308  0.77946230    -0.78400
C39         C  0.27527984  0.79845279  0.75616031     0.82400
N40         N  0.29542526  0.77633756  0.75262798    -0.78300
C41         C  0.31838326  0.77357019  0.77181861     0.82500
N42         N  0.32080276  0.79275732  0.79509899    -0.80000
O43         O  0.96693094  0.04267664  0.02000481    -0.88600
C44         C  0.04624422  0.08397314  0.01535953     0.87400
Mg45       Mg  0.95534367  0.01707871  0.05813131     1.58100
O46         O  0.04048912  0.01951648  0.97137736    -0.88400
O47         O  0.97214004  0.03662462  0.97194159    -0.75700
C48         C  0.07365314  0.93299510  0.08806920     0.92400
O49         O  0.00577195  0.07150830  0.07245491    -0.75500
O50         O  0.05111122  0.94376517  0.10135561    -0.83000
Mg51       Mg  0.98361094  0.08655246  0.02890314     1.58000
C52         C  0.10877904  0.95780263  0.97058890     0.92400
O53         O  0.96056860  0.10669077  0.98743225    -0.81300
H54         H  0.01988445  0.99599081  0.93972811    -0.06600
C55         C  0.08166518  0.00936319  0.05118268     0.87300
O56         O  0.96890557  0.97366706  0.03457264    -0.75800
O57         O  0.02258941  0.07477161  0.00488082    -0.88600
O58         O  0.10373601  0.98514422  0.96482147    -0.81400
C59         C  0.08618035  0.07799385  0.94087941     0.92500
C60         C  0.96807499  0.11290058  0.96079777     0.92300
Mg61       Mg  0.05534834  0.95660804  0.01876073     1.58000
O62         O  0.07837995  0.93797430  0.06053529    -0.81300
O63         O  0.03318387  0.97134274  0.97506753    -0.75500
O64         O  0.05863769  0.08281503  0.94489559    -0.81400
O65         O  0.94372597  0.09968520  0.05638877    -0.83100
O66         O  0.98136372  0.96001384  0.10485723    -0.81400
C67         C  0.03102540  0.99579138  0.96100409     0.86800
O68         O  0.01640078  0.96752915  0.04317854    -0.88500
O69         O  0.07170294  0.00054213  0.02711932    -0.88700
O70         O  0.06705644  0.00677482  0.07517734    -0.75700
Mg71       Mg  0.01641493  0.05922275  0.96036669     1.58000
O72         O  0.09883918  0.05489756  0.95105947    -0.83100
H73         H  0.93587115  0.02305586  0.99499310    -0.06800
O74         O  0.99914417  0.02325529  0.07545674    -0.88400
H75         H  0.01938324  0.04659521  0.10747502    -0.06600
H76         H  0.99224567  0.93753231  0.02090589    -0.06800
C77         C  0.00828782  0.04692937  0.08617704     0.86700
C78         C  0.95722500  0.03398049  0.99577498     0.87300
C79         C  0.99263128  0.95849850  0.03276348     0.87400
H80         H  0.10296046  0.02042029  0.05165594    -0.06800
O81         O  0.07012708  0.06913355  0.01325851    -0.75800
Mg82       Mg  0.02326532  0.98389345  0.08757168     1.58000
H83         H  0.04641276  0.10480850  0.02745280    -0.06800
C84         C  0.93275205  0.08600793  0.07855406     0.92400
O85         O  0.94238615  0.98964256  0.09758318    -0.83000
C86         C  0.95448467  0.96725347  0.10976698     0.92400
O87         O  0.99030608  0.10070887  0.94827739    -0.83000
Mg88       Mg  0.08427323  0.02609837  0.98935692     1.58200
O89         O  0.93747315  0.05833924  0.08275333    -0.81400
O90         O  0.09589776  0.94447947  0.99193708    -0.83100
C91         C  0.20736107  0.24332742  0.85881548     0.79900
N92         N  0.19716516  0.26990220  0.86876852    -0.78400
C93         C  0.21313708  0.29504727  0.86498367     0.82400
N94         N  0.23955782  0.29380652  0.85068784    -0.78300
C95         C  0.24975834  0.26736741  0.83988727     0.82500
N96         N  0.23366738  0.24203465  0.84405717    -0.80000
C97         C  0.85112794  0.20167889  0.24733848     0.79900
N98         N  0.86469184  0.19178325  0.27229002    -0.78400
C99         C  0.86237512  0.20701635  0.29814886     0.82400
N100        N  0.84606387  0.23238932  0.29928653    -0.78300
C101        C  0.83226087  0.24256005  0.27437089     0.82500
N102        N  0.83490587  0.22716809  0.24834838    -0.80000
C103        C  0.24046499  0.84897577  0.20553099     0.79900
N104        N  0.26628334  0.85967805  0.19440068    -0.78400
C105        C  0.29187419  0.85786481  0.20997064     0.82400
N106        N  0.29175246  0.84481903  0.23717077    -0.78300
C107        C  0.26621899  0.83319253  0.24844612     0.82500
N108        N  0.24046704  0.83543072  0.23262824    -0.80000
O109        O  0.05141828  0.46252156  0.53139707    -0.88600
C110        C  0.05967933  0.54107826  0.48737839     0.87400
Mg111      Mg  0.01301464  0.45242914  0.55693833     1.58100
O112        O  0.10208120  0.53720701  0.55290729    -0.88400
O113        O  0.09916257  0.46808347  0.53892347    -0.75700
C114        C  0.98468409  0.57453484  0.63536653     0.92400
O115        O  0.00058718  0.50212351  0.50071799    -0.75500
O116        O  0.97196632  0.55122553  0.62558919    -0.83000
Mg117      Mg  0.04356524  0.47843019  0.48710812     1.58000
C118        C  0.10240829  0.60753701  0.61188672     0.92400
O119        O  0.08447026  0.45399135  0.46839807    -0.81300
H120        H  0.13312821  0.51737857  0.57761928    -0.06600
C121        C  0.02302175  0.57948873  0.55936921     0.87300
O122        O  0.03658297  0.46719534  0.59991130    -0.75800
O123        O  0.06871444  0.51746852  0.49815076    -0.88600
O124        O  0.10904755  0.60148383  0.58496436    -0.81400
C125        C  0.13604903  0.57960580  0.49368620     0.92500
C126        C  0.11148261  0.46046996  0.46306877     0.92300
Mg127      Mg  0.05369031  0.55486472  0.61370931     1.58000
O128        O  0.01208412  0.57955936  0.63048055    -0.81300
O129        O  0.09739562  0.53164543  0.60110086    -0.75500
O130        O  0.13091097  0.55196849  0.48931161    -0.81400
O131        O  0.01470714  0.43856433  0.47457554    -0.83100
O132        O  0.96670750  0.48190727  0.61197965    -0.81400
C133        C  0.11194505  0.52859693  0.57706602     0.86800
O134        O  0.02925283  0.51538078  0.60371135    -0.88500
O135        O  0.04678719  0.56987871  0.56907293    -0.88700
O136        O  0.99893762  0.56512859  0.56239412    -0.75700
Mg137      Mg  0.11275264  0.51099831  0.51470216     1.58000
O138        O  0.12529426  0.59338953  0.51595972    -0.83100
H139        H  0.07557466  0.43240546  0.55329387    -0.06800
O140        O  0.99699722  0.49648888  0.54891803    -0.88400
H141        H  0.96558147  0.51671348  0.52503215    -0.06600
H142        H  0.05066044  0.49211748  0.63487992    -0.06800
C143        C  0.98664484  0.50525687  0.52505282     0.86700
C144        C  0.07526266  0.45325144  0.54131765     0.87300
C145        C  0.03898192  0.49173693  0.61389675     0.87400
H146        H  0.02287540  0.60026175  0.54726541    -0.06800
O147        O  0.06255006  0.56576574  0.50093720    -0.75800
Mg148      Mg  0.98535036  0.52232071  0.58683709     1.58000
H149        H  0.04833304  0.54058957  0.46621489    -0.06800
C150        C  0.99200390  0.42893783  0.48843014     0.92400
O151        O  0.97334706  0.44091406  0.58493192    -0.83000
C152        C  0.96130908  0.45457354  0.60656938     0.92400
O153        O  0.12438499  0.48249504  0.47533084    -0.83000
Mg154      Mg  0.08547158  0.58104459  0.54406721     1.58200
O155        O  0.98814832  0.43429666  0.51602858    -0.81400
O156        O  0.08038901  0.59557168  0.62485928    -0.83100
C157        C  0.82194801  0.35195071  0.36958792     0.79900
N158        N  0.82240209  0.33449202  0.34475365    -0.78400
C159        C  0.79711778  0.33066015  0.32851142     0.82400
N160        N  0.77155804  0.34408127  0.33725634    -0.78300
C161        C  0.77117395  0.36147490  0.36184807     0.82500
N162        N  0.79630341  0.36537191  0.37775346    -0.80000
C163        C  0.21619499  0.70409653  0.33041629     0.79900
N164        N  0.20358233  0.69480555  0.30472334    -0.78400
C165        C  0.20476153  0.71149325  0.27984181     0.82400
N166        N  0.21915682  0.73793594  0.28036370    -0.78300
C167        C  0.23259000  0.74752877  0.30573295     0.82500
N168        N  0.23109297  0.73057421  0.33094430    -0.80000
C169        C  0.85829699  0.74132598  0.70635723     0.79900
N170        N  0.83178014  0.73971867  0.72073497    -0.78400
C171        C  0.81496387  0.76469197  0.72423918     0.82400
N172        N  0.82476976  0.79114716  0.71338736    -0.78300
C173        C  0.85127051  0.79274099  0.69934867     0.82500
N174        N  0.86798690  0.76797613  0.69613707    -0.80000
O175        O  0.02505007  0.09678988  0.52868869    -0.88600
C176        C  0.01742917  0.01638633  0.48803608     0.87400
Mg177      Mg  0.06249008  0.10801149  0.55510436     1.58100
O178        O  0.97362770  0.02445752  0.55229141    -0.88400
O179        O  0.97709227  0.09286228  0.53509762    -0.75700
C180        C  0.08707587  0.98995403  0.64109962     0.92400
O181        O  0.07646548  0.05511249  0.50239727    -0.75500
O182        O  0.10072973  0.01271956  0.63129705    -0.83000
Mg183      Mg  0.03424773  0.07824117  0.48559917     1.58000
C184        C  0.96930190  0.95731766  0.61381304     0.92400
O185        O  0.99428733  0.10130832  0.46355615    -0.81300
H186        H  0.94157911  0.04533979  0.57488441    -0.06600
C187        C  0.05201973  0.98154142  0.56406113     0.87300
O188        O  0.03724970  0.09547142  0.59786696    -0.75800
O189        O  0.00808851  0.04051088  0.49741436    -0.88600
O190        O  0.96533903  0.96237292  0.58625149    -0.81400
C191        C  0.93998095  0.97973811  0.49456011     0.92500
C192        C  0.96687400  0.09635730  0.45854390     0.92300
Mg193      Mg  0.01894484  0.00897015  0.61585289     1.58000
O194        O  0.05981890  0.98530523  0.63509346    -0.81300
O195        O  0.97606832  0.03182016  0.60045085    -0.75500
O196        O  0.94504522  0.00726067  0.48977934    -0.81400
O197        O  0.06350137  0.11722666  0.47252026    -0.83100
O198        O  0.10602276  0.08202082  0.61451228    -0.81400
C199        C  0.96269792  0.03401788  0.57567867     0.86800
O200        O  0.04423685  0.04764711  0.60500673    -0.88500
O201        O  0.02791893  0.99198164  0.57202252    -0.88700
O202        O  0.07614486  0.99575400  0.56760169    -0.75700
Mg203      Mg  0.96368508  0.04891031  0.51288698     1.58000
O204        O  0.95121473  0.96628978  0.51673913    -0.83100
H205        H  0.00104569  0.12894438  0.54781577    -0.06800
O206        O  0.07881619  0.06356612  0.55033307    -0.88400
H207        H  0.11053655  0.04148904  0.52845193    -0.06600
H208        H  0.02154062  0.07296769  0.63367410    -0.06800
C209        C  0.08966143  0.05322616  0.52726713     0.86700
C210        C  0.00119618  0.10731638  0.53720795     0.87300
C211        C  0.03413680  0.07192359  0.61323904     0.87400
H212        H  0.05248612  0.96009455  0.55309912    -0.06800
O213        O  0.01460332  0.99253606  0.50286193    -0.75800
Mg214      Mg  0.08885122  0.03988688  0.59042149     1.58000
H215        H  0.02925624  0.01577327  0.46712858    -0.06800
C216        C  0.08508818  0.12912679  0.48640841     0.92400
O217        O  0.10103758  0.12047774  0.58361506    -0.83000
C218        C  0.11192061  0.10866685  0.60678911     0.92400
O219        O  0.95269060  0.07589431  0.47200240    -0.83000
Mg220      Mg  0.99024597  0.97999739  0.54576756     1.58200
O221        O  0.08871348  0.12524061  0.51428587    -0.81400
O222        O  0.99073554  0.96892592  0.62815409    -0.83100
C223        C  0.20477278  0.82173793  0.72149992     0.79900
N224        N  0.23147778  0.82313479  0.73541878    -0.78400
C225        C  0.24817809  0.79807115  0.73834266     0.82400
N226        N  0.23817729  0.77167387  0.72727487    -0.78300
C227        C  0.21130576  0.77022020  0.71394044     0.82500
N228        N  0.19479909  0.79515251  0.71127626    -0.80000
C229        C  0.24581546  0.22467154  0.36812592     0.79900
N230        N  0.24398546  0.23631714  0.34020129    -0.78400
C231        C  0.26898444  0.23964198  0.32340280     0.82400
N232        N  0.29563894  0.23092259  0.33450528    -0.78300
C233        C  0.29755034  0.21999273  0.36252754     0.82500
N234        N  0.27270833  0.21704536  0.37913342    -0.80000
C235        C  0.85041590  0.86471221  0.32896813     0.79900
N236        N  0.83637510  0.83782464  0.32855021    -0.78400
C237        C  0.83342334  0.82269794  0.30234536     0.82400
N238        N  0.84463860  0.83442654  0.27685783    -0.78300
C239        C  0.85807039  0.86138840  0.27720027     0.82500
N240        N  0.86071890  0.87635974  0.30318678    -0.80000
O241        O  0.52282321  0.59689337  0.02449025    -0.88600
C242        C  0.51051363  0.51540953  0.98721429     0.87400
Mg243      Mg  0.56204973  0.60797256  0.04838386     1.58100
O244        O  0.46957181  0.52805921  0.05259483    -0.88400
O245        O  0.47494541  0.59534422  0.03234495    -0.75700
C246        C  0.58675093  0.49148131  0.13610999     0.92400
O247        O  0.57164650  0.55304466  0.99615323    -0.75500
O248        O  0.60084074  0.51320552  0.12467344    -0.83000
Mg249      Mg  0.52917402  0.57695742  0.98140758     1.58000
C250        C  0.46610203  0.46381981  0.11724913     0.92400
O251        O  0.48901408  0.60110687  0.96145136    -0.81300
H252        H  0.44041833  0.55214841  0.07594553    -0.06600
C253        C  0.54639335  0.48237800  0.06167659     0.87300
O254        O  0.53937175  0.59804920  0.09299830    -0.75800
O255        O  0.50269449  0.54031451  0.99597114    -0.88600
O256        O  0.45912868  0.46821114  0.09014575    -0.81400
C257        C  0.43243112  0.48221120  0.99757034     0.92500
C258        C  0.46153065  0.59617118  0.95710632     0.92300
Mg259      Mg  0.51819365  0.51330388  0.11404742     1.58000
O260        O  0.55897443  0.48797101  0.13188561    -0.81300
O261        O  0.47570454  0.53791238  0.10000901    -0.75500
O262        O  0.43889396  0.50916017  0.99159986    -0.81400
O263        O  0.55844205  0.61470666  0.96534348    -0.83100
O264        O  0.60927121  0.58161454  0.10434283    -0.81400
C265        C  0.46083784  0.53957104  0.07604679     0.86800
O266        O  0.54476747  0.55018502  0.10059759    -0.88500
O267        O  0.52329640  0.49408561  0.07080068    -0.88700
O268        O  0.57128476  0.49559470  0.06320925    -0.75700
Mg269      Mg  0.45923862  0.55091073  0.01250318     1.58000
O270        O  0.44274495  0.46933144  0.02052564    -0.83100
H271        H  0.50080137  0.63076988  0.04307820    -0.06800
O272        O  0.57671828  0.56277846  0.04361646    -0.88400
H273        H  0.60677288  0.53939329  0.02073453    -0.06600
H274        H  0.52556289  0.57703054  0.13042467    -0.06800
C275        C  0.58612161  0.55157591  0.02031506     0.86700
C276        C  0.49972064  0.60876494  0.03333547     0.87300
C277        C  0.53647316  0.57502464  0.10910468     0.87400
H278        H  0.54525940  0.46061409  0.05141000    -0.06800
O279        O  0.50673209  0.49223966  0.00292342    -0.75800
Mg280      Mg  0.58795937  0.53965239  0.08353259     1.58000
H281        H  0.52161143  0.51342015  0.96598945    -0.06800
C282        C  0.58071704  0.62648772  0.97812597     0.92400
O283        O  0.60295688  0.62042772  0.07422185    -0.83000
C284        C  0.61521595  0.60827920  0.09656175     0.92400
O285        O  0.44762121  0.57580966  0.97087742    -0.83000
Mg286      Mg  0.48353011  0.48263259  0.04739999     1.58200
O287        O  0.58549224  0.62306922  0.00583584    -0.81400
O288        O  0.48917375  0.47523741  0.12888640    -0.83100
C289        C  0.35063136  0.36418122  0.83134116     0.79900
N290        N  0.33842116  0.33652893  0.83177968    -0.78400
C291        C  0.33701459  0.32005114  0.80638319     0.82400
N292        N  0.34797060  0.33123429  0.78056490    -0.78300
C293        C  0.35974939  0.35900273  0.77992734     0.82500
N294        N  0.36079376  0.37539482  0.80525338    -0.80000
C295        C  0.70480740  0.32366902  0.21907216     0.79900
N296        N  0.73061530  0.32389225  0.23491881    -0.78400
C297        C  0.74624152  0.29799853  0.23847954     0.82400
N298        N  0.73596652  0.27224134  0.22628073    -0.78300
C299        C  0.71006844  0.27199043  0.21113306     0.82500
N300        N  0.69482546  0.29758602  0.20772514    -0.80000
C301        C  0.74263242  0.71432579  0.85822994     0.79900
N302        N  0.76924704  0.70535914  0.86891282    -0.78400
C303        C  0.79405481  0.70807441  0.85221504     0.82400
N304        N  0.79244611  0.72018648  0.82467951    -0.78300
C305        C  0.76596576  0.72988887  0.81407680     0.82500
N306        N  0.74107155  0.72684291  0.83084434    -0.80000
O307        O  0.03097113  0.55639054  0.96408717    -0.88600
C308        C  0.98663670  0.56855795  0.04200260     0.87400
Mg309      Mg  0.05529309  0.51642501  0.95496700     1.58100
O310        O  0.05291080  0.60953478  0.03653204    -0.88400
O311        O  0.03883608  0.60453122  0.96771321    -0.75700
C312        C  0.13390342  0.49042776  0.07790632     0.92400
O313        O  0.99874827  0.50742454  0.00495408    -0.75500
O314        O  0.12275856  0.47678905  0.05570404    -0.83000
Mg315      Mg  0.98640916  0.55028414  0.98011691     1.58000
C316        C  0.11107523  0.61012349  0.10711913     0.92400
O317        O  0.96874896  0.59101824  0.95492213    -0.81300
H318        H  0.07875284  0.63845914  0.01483919    -0.06600
C319        C  0.05770142  0.53096655  0.08146474     0.87300
O320        O  0.09898020  0.53886296  0.96910769    -0.75800
O321        O  0.99771038  0.57665932  0.01821817    -0.88600
O322        O  0.08470286  0.61762167  0.10036121    -0.81400
C323        C  0.99466138  0.64640289  0.07841088     0.92500
C324        C  0.96365845  0.61851079  0.95991060     0.92300
Mg325      Mg  0.11264933  0.55938751  0.05581457     1.58000
O326        O  0.12948681  0.51822069  0.08205405    -0.81300
O327        O  0.10072689  0.60245350  0.03077112    -0.75500
O328        O  0.99024439  0.64091032  0.05085904    -0.81400
O329        O  0.97317748  0.52081707  0.94084054    -0.83100
O330        O  0.10834825  0.46839886  0.98613656    -0.81400
C331        C  0.07736352  0.61787420  0.02718718     0.86800
O332        O  0.10246196  0.53319166  0.01741295    -0.88500
O333        O  0.06785161  0.55418859  0.07081088    -0.88700
O334        O  0.06024259  0.50609685  0.06820285    -0.75700
Mg335      Mg  0.01500067  0.62049470  0.01021159     1.58000
O336        O  0.01649894  0.63511425  0.09228802    -0.83100
H337        H  0.05325791  0.57922690  0.93316169    -0.06800
O338        O  0.04664461  0.50167973  0.99950068    -0.88400
H339        H  0.02147188  0.47183442  0.02069682    -0.06600
H340        H  0.13441321  0.55251764  0.99338307    -0.06800
C341        C  0.02240930  0.49257344  0.00856899     0.86700
C342        C  0.04120383  0.57986270  0.95393965     0.87300
C343        C  0.11302456  0.54163308  0.99346584     0.87400
H344        H  0.04564365  0.53198524  0.10222458    -0.06800
O345        O  0.00020638  0.57169132  0.06653722    -0.75800
Mg346      Mg  0.08417853  0.48987769  0.02602661     1.58000
H347        H  0.96521452  0.55774428  0.04180985    -0.06800
C348        C  0.98634352  0.49788723  0.93064402     0.92400
O349        O  0.08200751  0.47493723  0.94478154    -0.83000
C350        C  0.10297673  0.46236969  0.95892513     0.92400
O351        O  0.97581556  0.63243621  0.98136075    -0.83000
Mg352      Mg  0.04371578  0.59415003  0.08078206     1.58200
O353        O  0.01363029  0.49290534  0.93629938    -0.81400
O354        O  0.12371417  0.58759937  0.09557683    -0.83100
C355        C  0.82796550  0.72501247  0.19917019     0.79900
N356        N  0.82766536  0.73718540  0.22701421    -0.78400
C357        C  0.80191333  0.73778429  0.24312931     0.82400
N358        N  0.77676375  0.72590177  0.23138928    -0.78300
C359        C  0.77696393  0.71428475  0.20354387     0.82500
N360        N  0.80241038  0.71409811  0.18763689    -0.80000
C361        C  0.21756054  0.36701077  0.24040762     0.79900
N362        N  0.20578698  0.37684963  0.26634752    -0.78400
C363        C  0.20633962  0.35977605  0.29105835     0.82400
N364        N  0.21937165  0.33267188  0.29017232    -0.78300
C365        C  0.23207958  0.32264967  0.26464776     0.82500
N366        N  0.23104794  0.33981143  0.23957415    -0.80000
C367        C  0.86627829  0.33086209  0.84954723     0.79900
N368        N  0.83948373  0.33034509  0.83550864    -0.78400
C369        C  0.82372445  0.30432085  0.83383113     0.82400
N370        N  0.83486468  0.27903420  0.84636743    -0.78300
C371        C  0.86174111  0.27950026  0.85995309     0.82500
N372        N  0.87707530  0.30533452  0.86126498    -0.80000
O373        O  0.54559270  0.99928808  0.99543649    -0.88600
C374        C  0.53712805  0.95747035  0.07597203     0.87400
Mg375      Mg  0.58427484  0.02396506  0.98318405     1.58100
O376        O  0.49540002  0.02294274  0.06915095    -0.88400
O377        O  0.49787986  0.00647870  0.00088089    -0.75700
C378        C  0.61256389  0.10674179  0.10206405     0.92400
O379        O  0.59643310  0.96863246  0.03456231    -0.75500
O380        O  0.62640753  0.09475456  0.08050215    -0.83000
Mg381      Mg  0.55252485  0.95511921  0.01238779     1.58000
C382        C  0.49437986  0.08627806  0.13472709     0.92400
O383        O  0.51057741  0.93677491  0.98870831    -0.81300
H384        H  0.46461562  0.04672978  0.04786350    -0.06600
C385        C  0.57470783  0.02968874  0.11013599     0.87300
O386        O  0.56212143  0.06784630  0.99692133    -0.75800
O387        O  0.52820408  0.96737283  0.05192912    -0.88600
O388        O  0.48761439  0.05890097  0.13089121    -0.81400
C389        C  0.45884418  0.96711669  0.11334376     0.92500
C390        C  0.48366617  0.93170579  0.99582548     0.92300
Mg391      Mg  0.54426913  0.08368848  0.08329835     1.58000
O392        O  0.58514586  0.10190748  0.10661640    -0.81300
O393        O  0.50070656  0.07056984  0.06052222    -0.75500
O394        O  0.46472045  0.96143140  0.08617751    -0.81400
O395        O  0.57956338  0.94162043  0.97191965    -0.83100
O396        O  0.63164514  0.08005234  0.01030420    -0.81400
C397        C  0.48579527  0.04662835  0.05909571     0.86800
O398        O  0.56909527  0.07161676  0.04487730    -0.88500
O399        O  0.55085124  0.03995460  0.10116395    -0.88700
O400        O  0.59859077  0.03186700  0.09518356    -0.75700
Mg401      Mg  0.48426152  0.98405670  0.04476540     1.58000
O402        O  0.47097186  0.98882578  0.12698258    -0.83100
H403        H  0.52119921  0.02011197  0.96478153    -0.06800
O404        O  0.60171237  0.01653913  0.02681908    -0.88400
H405        H  0.63268368  0.99223762  0.04724563    -0.06600
H406        H  0.54919996  0.10358183  0.02135767    -0.06800
C407        C  0.61136500  0.99259293  0.03628421     0.86700
C408        C  0.52169488  0.00879201  0.98596658     0.87300
C409        C  0.56002683  0.08211643  0.02121101     0.87400
H410        H  0.57507939  0.01770984  0.13095919    -0.06800
O411        O  0.53406501  0.97192478  0.10015251    -0.75800
Mg412      Mg  0.61317768  0.05527624  0.05199755     1.58000
H413        H  0.54839479  0.93623795  0.07634505    -0.06800
C414        C  0.60081851  0.95480103  0.95872445     0.92400
O415        O  0.62442301  0.05136799  0.97037396    -0.83000
C416        C  0.63626346  0.07389528  0.98293483     0.92400
O417        O  0.47171539  0.94354253  0.01852319    -0.83000
Mg418      Mg  0.51146463  0.01609721  0.11351047     1.58200
O419        O  0.60661874  0.98223338  0.96345773    -0.81400
O420        O  0.51725632  0.09774397  0.12284454    -0.83100
C421        C  0.72179382  0.20391021  0.82836282     0.79900
N422        N  0.73482006  0.23125445  0.82828196    -0.78400
C423        C  0.73716304  0.24676662  0.80230653     0.82400
N424        N  0.72627045  0.23489649  0.77660788    -0.78300
C425        C  0.71376573  0.20738297  0.77664217     0.82500
N426        N  0.71179339  0.19216217  0.80248221    -0.80000
C427        C  0.36310762  0.24444651  0.21539305     0.79900
N428        N  0.33602849  0.24312048  0.22882200    -0.78400
C429        C  0.31969404  0.26852277  0.23222731     0.82400
N430        N  0.33051278  0.29495401  0.22222253    -0.78300
C431        C  0.35767679  0.29632330  0.20950864     0.82500
N432        N  0.37378253  0.27114422  0.20636284    -0.80000
C433        C  0.32576819  0.84786510  0.86999050     0.79900
N434        N  0.32633917  0.83464558  0.84279840    -0.78400
C435        C  0.30110993  0.83273889  0.82631198     0.82400
N436        N  0.27540642  0.84454955  0.83695962    -0.78300
C437        C  0.27478612  0.85747768  0.86427216     0.82500
N438        N  0.29987036  0.85877508  0.88073502    -0.80000
O439        O  0.46468880  0.54067154  0.51894433    -0.88600
C440        C  0.54398245  0.58361884  0.51645477     0.87400
Mg441      Mg  0.45147822  0.51435286  0.55640230     1.58100
O442        O  0.54009914  0.51949917  0.47154851    -0.88400
O443        O  0.47179812  0.53559885  0.47098624    -0.75700
C444        C  0.56957149  0.43039072  0.58729023     0.92400
O445        O  0.50199193  0.56850076  0.57263592    -0.75500
O446        O  0.54654853  0.44047354  0.60032115    -0.83000
Mg447      Mg  0.48118014  0.58450652  0.52870360     1.58000
C448        C  0.60693586  0.45861914  0.47115766     0.92400
O449        O  0.45975168  0.60531150  0.48673081    -0.81300
H450        H  0.52034748  0.49674143  0.43883090    -0.06600
C451        C  0.57782952  0.50786962  0.55277646     0.87300
O452        O  0.46568740  0.47133572  0.53252430    -0.75800
O453        O  0.52092100  0.57378079  0.50531670    -0.88600
O454        O  0.60289443  0.48648242  0.46808076    -0.81400
C455        C  0.58628696  0.57810857  0.44130157     0.92500
C456        C  0.46756832  0.61157637  0.46016220     0.92300
Mg457      Mg  0.55263528  0.45558313  0.51803204     1.58000
O458        O  0.57480268  0.43604993  0.55995951    -0.81300
O459        O  0.53170282  0.47139485  0.47431237    -0.75500
O460        O  0.55852081  0.58252837  0.44438248    -0.81400
O461        O  0.44039751  0.59710939  0.55538664    -0.83100
O462        O  0.47618684  0.45641936  0.60290242    -0.81400
C463        C  0.53071730  0.49604070  0.46048377     0.86800
O464        O  0.51307205  0.46573435  0.54197394    -0.88500
O465        O  0.56877406  0.49974855  0.52810904    -0.88700
O466        O  0.56253077  0.50427103  0.57620992    -0.75700
Mg467      Mg  0.51610920  0.55872167  0.46030067     1.58000
O468        O  0.59913640  0.55617795  0.45371675    -0.83100
H469        H  0.43496388  0.52097306  0.49242520    -0.06800
O470        O  0.49463184  0.52027073  0.57530694    -0.88400
H471        H  0.51425710  0.54327763  0.60793668    -0.06600
H472        H  0.48976619  0.43568977  0.51885453    -0.06800
C473        C  0.50375193  0.54382460  0.58634482     0.86700
C474        C  0.45608122  0.53224047  0.49421152     0.87300
C475        C  0.48964166  0.45651076  0.53097070     0.87400
H476        H  0.59896025  0.51914639  0.55431397    -0.06800
O477        O  0.56814951  0.56923619  0.51529387    -0.75800
Mg478      Mg  0.51862299  0.48079029  0.58699447     1.58000
H479        H  0.54330787  0.60452469  0.52840543    -0.06800
C480        C  0.42893903  0.58325710  0.57721910     0.92400
O481        O  0.43704068  0.48571272  0.59516026    -0.83000
C482        C  0.44905216  0.46317388  0.60731505     0.92400
O483        O  0.49005105  0.59963970  0.44794259    -0.83000
Mg484      Mg  0.58297432  0.52656642  0.49157691     1.58200
O485        O  0.43327583  0.55546497  0.58113267    -0.81400
O486        O  0.59328859  0.44349761  0.49077478    -0.83100
C487        C  0.70269223  0.74113077  0.34845354     0.79900
N488        N  0.69142261  0.76687364  0.35951454    -0.78400
C489        C  0.70663706  0.79275533  0.35725658     0.82400
N490        N  0.73333939  0.79308097  0.34329882    -0.78300
C491        C  0.74460436  0.76759839  0.33126266     0.82500
N492        N  0.72931412  0.74150902  0.33409275    -0.80000
C493        C  0.35188282  0.70293396  0.74595534     0.79900
N494        N  0.36239382  0.69222525  0.77202503    -0.78400
C495        C  0.36060979  0.70853922  0.79724320     0.82400
N496        N  0.34785525  0.73579359  0.79671179    -0.78300
C497        C  0.33652789  0.74655761  0.77090673     0.82500
N498        N  0.33861490  0.73012985  0.74544600    -0.80000
C499        C  0.73876818  0.35287549  0.70569509     0.79900
N500        N  0.73931138  0.33839309  0.73235530    -0.78400
C501        C  0.76517543  0.33661483  0.74808596     0.82400
N502        N  0.79014463  0.34947535  0.73717350    -0.78300
C503        C  0.78971706  0.36345871  0.71057453     0.82500
N504        N  0.76420936  0.36482417  0.69483531    -0.80000
O505        O  0.52748091  0.05445045  0.46722332    -0.88600
C506        C  0.48514615  0.06403515  0.54719971     0.87400
Mg507      Mg  0.55109185  0.01458199  0.45560554     1.58100
O508        O  0.55174534  0.10434165  0.54214207    -0.88400
O509        O  0.53648923  0.10216655  0.47339292    -0.75700
C510        C  0.63022874  0.98337789  0.57604477     0.92400
O511        O  0.49530022  0.00427528  0.50680685    -0.75500
O512        O  0.61938921  0.97033065  0.55339473    -0.83000
Mg513      Mg  0.48322683  0.04847424  0.48435829     1.58000
C514        C  0.61200814  0.10172650  0.61078085     0.92400
O515        O  0.46564424  0.09089187  0.46116624    -0.81300
H516        H  0.57704378  0.13476989  0.52191257    -0.06600
C517        C  0.55554632  0.02434104  0.58287265     0.87300
O518        O  0.59529801  0.03589564  0.46984389    -0.75800
O519        O  0.49605366  0.07265258  0.52349327    -0.88600
O520        O  0.58546041  0.10985740  0.60538684    -0.81400
C521        C  0.49421034  0.13963239  0.58614014     0.92500
C522        C  0.46135926  0.11815018  0.46801766     0.92300
Mg523      Mg  0.61050733  0.05325526  0.55728532     1.58000
O524        O  0.62615953  0.01104583  0.58075225    -0.81300
O525        O  0.59931148  0.09775753  0.53485432    -0.75500
O526        O  0.49006299  0.13453540  0.55854407    -0.81400
O527        O  0.46864444  0.02083206  0.44445515    -0.83100
O528        O  0.60402916  0.96484769  0.48388281    -0.81400
C529        C  0.57594137  0.11339424  0.53287161     0.86800
O530        O  0.59877620  0.02893592  0.51793790    -0.88500
O531        O  0.56617642  0.04800017  0.57365310    -0.88700
O532        O  0.55746840  0.00022423  0.56812685    -0.75700
Mg533      Mg  0.51372333  0.11643814  0.51701047     1.58000
O534        O  0.51647462  0.12898770  0.59988697    -0.83100
H535        H  0.54976241  0.07852343  0.43725293    -0.06800
O536        O  0.54290210  0.99809503  0.49959073    -0.88400
H537        H  0.51785808  0.96751228  0.51987606    -0.06600
H538        H  0.63094853  0.04847874  0.49438266    -0.06800
C539        C  0.51878522  0.98886005  0.50884592     0.86700
C540        C  0.53805825  0.07825057  0.45823562     0.87300
C541        C  0.60941051  0.03789945  0.49422660     0.87400
H542        H  0.54357047  0.02434382  0.60370360    -0.06800
O543        O  0.49894045  0.06654173  0.57171064    -0.75800
Mg544      Mg  0.58062802  0.98516880  0.52498137     1.58000
H545        H  0.46360138  0.05346760  0.54696881    -0.06800
C546        C  0.48115605  0.99827138  0.43268552     0.92400
O547        O  0.57734005  0.97294423  0.44304289    -0.83000
C548        C  0.59836094  0.95967313  0.45654309     0.92400
O549        O  0.47420065  0.13033413  0.49004220    -0.83000
Mg550      Mg  0.54312766  0.08787883  0.58608650     1.58200
O551        O  0.50858876  0.99268858  0.43692620    -0.81400
O552        O  0.62370794  0.07923403  0.59821407    -0.83100
C553        C  0.36336400  0.82967472  0.35266149     0.79900
N554        N  0.37557726  0.80406862  0.36283881    -0.78400
C555        C  0.36079389  0.77786357  0.36069590     0.82400
N556        N  0.33362308  0.77713100  0.34771757    -0.78300
C557        C  0.32152190  0.80248889  0.33650809     0.82500
N558        N  0.33637632  0.82881991  0.33919040    -0.80000
C559        C  0.32737391  0.21770610  0.70753889     0.79900
N560        N  0.30124698  0.20697398  0.69748045    -0.78400
C561        C  0.27612948  0.20890316  0.71367697     0.82400
N562        N  0.27700864  0.22178789  0.74093077    -0.78300
C563        C  0.30300303  0.23308805  0.75149966     0.82500
N564        N  0.32825116  0.23116579  0.73470487    -0.80000
C565        C  0.71069430  0.86002488  0.73971776     0.79900
N566        N  0.72488572  0.83340760  0.73791358    -0.78400
C567        C  0.72798513  0.81626794  0.76266764     0.82400
N568        N  0.71675117  0.82580163  0.78919549    -0.78300
C569        C  0.70300225  0.85260311  0.79102537     0.82500
N570        N  0.70024011  0.86944926  0.76633132    -0.80000
C571        C  0.30256710  0.25072441  0.77904818     0.79900
N572        N  0.32220135  0.27339963  0.78250549    -0.78400
C573        C  0.31944735  0.29268197  0.80563042     0.82400
N574        N  0.29657881  0.28962211  0.82491855    -0.78300
C575        C  0.27675747  0.26716231  0.82168556     0.82500
N576        N  0.27959058  0.24788350  0.79850411    -0.80000
C577        C  0.67302173  0.97491129  0.67619530    -0.18100
C578        C  0.68471445  0.95761242  0.69908075    -0.20300
C579        C  0.69116899  0.92744849  0.69426222     0.20300
C580        C  0.68667376  0.91469385  0.66594928    -0.03200
C581        C  0.67470521  0.93213509  0.64286926    -0.06300
C582        C  0.66754796  0.96226011  0.64819761     0.20600
C583        C  0.66899259  0.91920114  0.61482799     0.18800
C584        C  0.67631106  0.88921473  0.60984763    -0.17800
C585        C  0.68830753  0.87191582  0.63274081    -0.20000
C586        C  0.69311055  0.88429474  0.66102271     0.20300
C587        C  0.70297251  0.86660336  0.68479523    -0.33000
C588        C  0.70583908  0.87896279  0.71339998     0.01000
C589        C  0.70085164  0.90957378  0.71765251    -0.24300
C590        C  0.65416904  0.97902253  0.62577636    -0.28900
C591        C  0.64728218  0.96605584  0.59813282     0.06600
C592        C  0.65526647  0.93624424  0.59261270    -0.27600
H593        H  0.66768853  0.99803448  0.68057261     0.11400
H594        H  0.68813817  0.96767445  0.72073449     0.12500
H595        H  0.67223310  0.87897646  0.58839644     0.11600
H596        H  0.69319845  0.84867529  0.62851007     0.10800
H597        H  0.70675989  0.84300511  0.68142043     0.16200
H598        H  0.70345524  0.91935389  0.73957039     0.12100
H599        H  0.64814891  0.00195651  0.63031441     0.15000
H600        H  0.65022946  0.92611528  0.57130369     0.14700
C601        C  0.43622744  0.20642554  0.69281698    -0.18100
C602        C  0.45964819  0.19484095  0.67582008    -0.20300
C603        C  0.45449125  0.18323584  0.64723296     0.20300
C604        C  0.42565276  0.18459538  0.63518890    -0.03200
C605        C  0.40206433  0.19618747  0.65233375    -0.06300
C606        C  0.40718303  0.20656813  0.68158319     0.20600
C607        C  0.37314569  0.19625984  0.64056933     0.18800
C608        C  0.36805151  0.18583108  0.61159246    -0.17800
C609        C  0.39135035  0.17444479  0.59463971    -0.20000
C610        C  0.42009329  0.17331523  0.60640953     0.20300
C611        C  0.44307581  0.16009530  0.59022702    -0.33000
C612        C  0.47159221  0.15722337  0.60250874     0.01000
C613        C  0.47731570  0.16939120  0.63086641    -0.24300
C614        C  0.38300887  0.21552787  0.69942624    -0.28900
C615        C  0.35389765  0.21389114  0.68826178     0.06600
C616        C  0.34950883  0.20545228  0.65836834    -0.27600
H617        H  0.44071648  0.21453170  0.71507013     0.11400
H618        H  0.48169587  0.19431167  0.68533432     0.12500
H619        H  0.34589566  0.18580992  0.60229217     0.11600
H620        H  0.38676217  0.16590682  0.57255824     0.10800
H621        H  0.43832677  0.15079408  0.56847161     0.16200
H622        H  0.49927879  0.16750862  0.64042720     0.12100
H623        H  0.38669501  0.22220512  0.72229733     0.15000
H624        H  0.32732879  0.20472197  0.64912294     0.14700
C625        C  0.45796346  0.88362096  0.35982182    -0.18100
C626        C  0.47458427  0.90741661  0.37102804    -0.20300
C627        C  0.46051198  0.93135396  0.38530201     0.20300
C628        C  0.42928380  0.93199123  0.38711331    -0.03200
C629        C  0.41245706  0.90804481  0.37557065    -0.06300
C630        C  0.42698265  0.88344929  0.36254305     0.20600
C631        C  0.38124860  0.90811963  0.37821525     0.18800
C632        C  0.36716315  0.93255158  0.39166988    -0.17800
C633        C  0.38385939  0.95621145  0.40325210    -0.20000
C634        C  0.41494893  0.95592129  0.40151899     0.20300
C635        C  0.43198520  0.97845755  0.41499117    -0.33000
C636        C  0.46321113  0.97716202  0.41459929     0.01000
C637        C  0.47721095  0.95396065  0.39888352    -0.24300
C638        C  0.41042767  0.85855275  0.35365630    -0.28900
C639        C  0.37948828  0.85797467  0.35721952     0.06600
C640        C  0.36487554  0.88320049  0.36857671    -0.27600
H641        H  0.46940955  0.86499917  0.34965476     0.11400
H642        H  0.49852842  0.90668880  0.36927228     0.12500
H643        H  0.34325337  0.93303329  0.39388717     0.11600
H644        H  0.37246659  0.97444522  0.41415429     0.10800
H645        H  0.42090646  0.99624197  0.42693506     0.16200
H646        H  0.50120356  0.95283574  0.39814798     0.12100
H647        H  0.42170335  0.83913917  0.34480903     0.15000
H648        H  0.34103966  0.88267153  0.37162030     0.14700
C649        C  0.68448217  0.89114289  0.45120955    -0.18100
C650        C  0.70006842  0.86821865  0.43696319    -0.20300
C651        C  0.68986480  0.85637954  0.40991951     0.20300
C652        C  0.66380360  0.86799759  0.39698384    -0.03200
C653        C  0.64825041  0.89135407  0.41121913    -0.06300
C654        C  0.65850578  0.90280269  0.43858732     0.20600
C655        C  0.62219453  0.90289699  0.39828259     0.18800
C656        C  0.61194095  0.89103620  0.37127246    -0.17800
C657        C  0.62709907  0.86765825  0.35738769    -0.20000
C658        C  0.65293653  0.85589293  0.37011362     0.20300
C659        C  0.66772861  0.83182647  0.35679906    -0.33000
C660        C  0.69355634  0.82013178  0.36962581     0.01000
C661        C  0.70480256  0.83268852  0.39593022    -0.24300
C662        C  0.64239648  0.92539304  0.45303641    -0.28900
C663        C  0.61622967  0.93693962  0.44039484     0.06600
C664        C  0.60654422  0.92573110  0.41278409    -0.27600
H665        H  0.69268266  0.89966120  0.47221489     0.11400
H666        H  0.71994398  0.85952274  0.44727536     0.12500
H667        H  0.59196682  0.89960947  0.36104725     0.11600
H668        H  0.61849492  0.85864765  0.33675122     0.10800
H669        H  0.65895679  0.82183304  0.33666170     0.16200
H670        H  0.72445769  0.82323849  0.40604496     0.12100
H671        H  0.65016248  0.93384224  0.47424726     0.15000
H672        H  0.58637363  0.93424862  0.40287788     0.14700
C673        C  0.38780993  0.67817655  0.61543267    -0.18100
C674        C  0.37653843  0.69504998  0.63909415    -0.20300
C675        C  0.36985673  0.68149877  0.66638706     0.20300
C676        C  0.37370202  0.65044006  0.66950872    -0.03200
C677        C  0.38489655  0.63340571  0.64559889    -0.06300
C678        C  0.39249166  0.64743321  0.61861049     0.20600
C679        C  0.38948600  0.60252657  0.64910488     0.18800
C680        C  0.38216277  0.58880559  0.67612173    -0.17800
C681        C  0.37128481  0.60569120  0.69984917    -0.20000
C682        C  0.36743604  0.63653567  0.69688312     0.20300
C683        C  0.35860914  0.65384886  0.72120289    -0.33000
C684        C  0.35598850  0.68495115  0.71870403     0.01000
C685        C  0.36065073  0.69856396  0.69097129    -0.24300
C686        C  0.40561563  0.63067845  0.59571354    -0.28900
C687        C  0.41131355  0.60006534  0.59949431     0.06600
C688        C  0.40236598  0.58606319  0.62598791    -0.27600
H689        H  0.39341186  0.68929015  0.59481931     0.11400
H690        H  0.37369188  0.71882725  0.63625778     0.12500
H691        H  0.38549533  0.56510946  0.67913296     0.11600
H692        H  0.36645916  0.59471170  0.72073314     0.10800
H693        H  0.35474013  0.64317827  0.74246599     0.16200
H694        H  0.35881289  0.72254220  0.68897250     0.12100
H695        H  0.41227696  0.64170545  0.57535879     0.15000
H696        H  0.40657782  0.56252664  0.62920624     0.14700
C697        C  0.37488858  0.66717402  0.44098998    -0.18100
C698        C  0.35961673  0.68994441  0.42633659    -0.20300
C699        C  0.37411417  0.70776056  0.40523159     0.20300
C700        C  0.40413524  0.70208469  0.39831194    -0.03200
C701        C  0.41937075  0.67875865  0.41269156    -0.06300
C702        C  0.40481566  0.66157889  0.43453385     0.20600
C703        C  0.44934372  0.67309548  0.40569307     0.18800
C704        C  0.46376455  0.69061555  0.38429769    -0.17800
C705        C  0.44885137  0.71410193  0.37050388    -0.20000
C706        C  0.41917489  0.72019631  0.37758685     0.20300
C707        C  0.40450017  0.74453790  0.36490410    -0.33000
C708        C  0.37478633  0.75054488  0.37202378     0.01000
C709        C  0.35943414  0.73168439  0.39157578    -0.24300
C710        C  0.42058596  0.63948542  0.44987339    -0.28900
C711        C  0.45053128  0.63392921  0.44319113     0.06600
C712        C  0.46457653  0.65046185  0.42067381    -0.27600
H713        H  0.36334091  0.65408892  0.45758047     0.11400
H714        H  0.33660581  0.69398305  0.43192350     0.12500
H715        H  0.48675082  0.68651181  0.37864513     0.11600
H716        H  0.46063299  0.72770386  0.35449825     0.10800
H717        H  0.41625038  0.75907239  0.34967683     0.16200
H718        H  0.33656820  0.73651997  0.39721084     0.12100
H719        H  0.40958210  0.62662181  0.46702011     0.15000
H720        H  0.48770007  0.64639631  0.41550144     0.14700
C721        C  0.68271113  0.61761317  0.40513531    -0.18100
C722        C  0.69911986  0.64002267  0.39101390    -0.20300
C723        C  0.68474436  0.66416492  0.37747224     0.20300
C724        C  0.65344509  0.66520750  0.37742339    -0.03200
C725        C  0.63689632  0.64253855  0.39157777    -0.06300
C726        C  0.65160844  0.61886705  0.40591646     0.20600
C727        C  0.60566816  0.64414154  0.39223263     0.18800
C728        C  0.59121406  0.66783427  0.37805218    -0.17800
C729        C  0.60757787  0.69038684  0.36428855    -0.20000
C730        C  0.63866703  0.68954553  0.36433190     0.20300
C731        C  0.65520364  0.71333376  0.35285370    -0.33000
C732        C  0.68634198  0.71314658  0.35407655     0.01000
C733        C  0.70104451  0.68799744  0.36535214    -0.24300
C734        C  0.63500921  0.59737657  0.42145500    -0.28900
C735        C  0.60385258  0.59935689  0.42300925     0.06600
C736        C  0.58941943  0.62255501  0.40777399    -0.27600
H737        H  0.69439632  0.59955932  0.41592983     0.11400
H738        H  0.72310017  0.63881983  0.39129179     0.12500
H739        H  0.56724049  0.66929997  0.37821387     0.11600
H740        H  0.59591188  0.70885326  0.35418569     0.10800
H741        H  0.64382822  0.73270732  0.34414487     0.16200
H742        H  0.72503713  0.68795535  0.36666353     0.12100
H743        H  0.64642050  0.57957118  0.43295147     0.15000
H744        H  0.56546408  0.62427174  0.40853560     0.14700
C745        C  0.69089522  0.37017457  0.60909962    -0.18100
C746        C  0.66719075  0.38123116  0.59247204    -0.20300
C747        C  0.64072879  0.38968046  0.60653620     0.20300
C748        C  0.63772320  0.38599277  0.63754243    -0.03200
C749        C  0.66164234  0.37459368  0.65435261    -0.06300
C750        C  0.68850212  0.36725255  0.64006581     0.20600
C751        C  0.65908901  0.37164643  0.68552424     0.18800
C752        C  0.63228761  0.37941783  0.69941627    -0.17800
C753        C  0.60863518  0.39087293  0.68276883    -0.20000
C754        C  0.61126517  0.39468040  0.65187207     0.20300
C755        C  0.58838661  0.40795268  0.63521898    -0.33000
C756        C  0.59169843  0.41274719  0.60439330     0.01000
C757        C  0.61770865  0.40274923  0.59021966    -0.24300
C758        C  0.71293954  0.35836304  0.65707168    -0.28900
C759        C  0.71109883  0.35663200  0.68826512     0.06600
C760        C  0.68377603  0.36228754  0.70230083    -0.27600
H761        H  0.71134955  0.36450548  0.59779720     0.11400
H762        H  0.66981589  0.38383329  0.56866646     0.12500
H763        H  0.62984222  0.37728769  0.72328357     0.11600
H764        H  0.58846182  0.39729535  0.69416957     0.10800
H765        H  0.56848248  0.41546197  0.64645069     0.16200
H766        H  0.62061025  0.40614645  0.56653826     0.12100
H767        H  0.73385293  0.35380997  0.64606945     0.15000
H768        H  0.68225352  0.36120979  0.72632873     0.14700
C769        C  0.69465132  0.11624610  0.71914661    -0.18100
C770        C  0.68033812  0.10139342  0.69589906    -0.20300
C771        C  0.66333358  0.11731738  0.67525462     0.20300
C772        C  0.66126419  0.14860705  0.67760108    -0.03200
C773        C  0.67620381  0.16367513  0.70074880    -0.06300
C774        C  0.69246376  0.14729528  0.72189505     0.20600
C775        C  0.67420080  0.19498781  0.70320971     0.18800
C776        C  0.65753869  0.21090037  0.68223038    -0.17800
C777        C  0.64227866  0.19589928  0.65957459    -0.20000
C778        C  0.64371385  0.16474534  0.65727316     0.20300
C779        C  0.62756660  0.14937198  0.63535948    -0.33000
C780        C  0.62954157  0.11821451  0.63304613     0.01000
C781        C  0.64786914  0.10242149  0.65269136    -0.24300
C782        C  0.70550827  0.16211051  0.74595468    -0.28900
C783        C  0.70292192  0.19315778  0.74908313     0.06600
C784        C  0.68803223  0.20963662  0.72717202    -0.27600
H785        H  0.70715997  0.10341049  0.73518048     0.11400
H786        H  0.68212682  0.07737128  0.69438254     0.12500
H787        H  0.65579066  0.23492021  0.68371382     0.11600
H788        H  0.62910696  0.20865221  0.64401955     0.10800
H789        H  0.61359711  0.16157263  0.62003643     0.16200
H790        H  0.64924628  0.07835761  0.65103936     0.12100
H791        H  0.71727843  0.14937357  0.76265268     0.15000
H792        H  0.68591435  0.23356368  0.72961390     0.14700
C793        C  0.42797884  0.88535874  0.87897724    -0.18100
C794        C  0.45032068  0.89759171  0.89684963    -0.20300
C795        C  0.44787835  0.89695104  0.92796598     0.20300
C796        C  0.42314583  0.88291762  0.94119648    -0.03200
C797        C  0.40061015  0.87065284  0.92319532    -0.06300
C798        C  0.40279203  0.87232664  0.89191432     0.20600
C799        C  0.37519908  0.85807762  0.93654477     0.18800
C800        C  0.37319408  0.85644831  0.96761591    -0.17800
C801        C  0.39554740  0.86849236  0.98543296    -0.20000
C802        C  0.42018893  0.88238888  0.97242509     0.20300
C803        C  0.44114902  0.89700954  0.99009700    -0.33000
C804        C  0.46503902  0.91227317  0.97707099     0.01000
C805        C  0.46892788  0.91128832  0.94606185    -0.24300
C806        C  0.37905119  0.86240425  0.87425595    -0.28900
C807        C  0.35296166  0.85178559  0.88764272     0.06600
C808        C  0.35154068  0.84882249  0.91867007    -0.27600
H809        H  0.43002361  0.88682169  0.85501852     0.11400
H810        H  0.46915413  0.90822349  0.88631785     0.12500
H811        H  0.35391409  0.84664976  0.97815001     0.11600
H812        H  0.39311764  0.86775113  0.00939438     0.10800
H813        H  0.43827032  0.89747034  0.01404085     0.16200
H814        H  0.48728824  0.92313723  0.93595613     0.12100
H815        H  0.38001977  0.86490119  0.85030010     0.15000
H816        H  0.33143157  0.84046899  0.92894128     0.14700
C817        C  0.67592608  0.95402903  0.87885554    -0.18100
C818        C  0.69054118  0.93949126  0.85561908    -0.20300
C819        C  0.68524161  0.90921533  0.85002928     0.20300
C820        C  0.66557919  0.89315674  0.86838072    -0.03200
C821        C  0.65058755  0.90793531  0.89168987    -0.06300
C822        C  0.65566168  0.93855298  0.89676247     0.20600
C823        C  0.63002531  0.89228471  0.90940422     0.18800
C824        C  0.62521345  0.86181779  0.90409962    -0.17800
C825        C  0.64024002  0.84709328  0.88109760    -0.20000
C826        C  0.66024056  0.86260513  0.86287883     0.20300
C827        C  0.67414724  0.84851188  0.83859935    -0.33000
C828        C  0.69254535  0.86496436  0.81949799     0.01000
C829        C  0.69845701  0.89503886  0.82572480    -0.24300
C830        C  0.63993988  0.95337672  0.91920713    -0.28900
C831        C  0.61882052  0.93820039  0.93655306     0.06600
C832        C  0.61424060  0.90751224  0.93168754    -0.27600
H833        H  0.68010249  0.97752241  0.88250596     0.11400
H834        H  0.70566478  0.95204912  0.84172421     0.12500
H835        H  0.60955019  0.84943420  0.91753639     0.11600
H836        H  0.63581956  0.82368463  0.87723113     0.10800
H837        H  0.66939115  0.82536873  0.83359582     0.16200
H838        H  0.71277333  0.90766427  0.81100720     0.12100
H839        H  0.64369169  0.97698398  0.92264968     0.15000
H840        H  0.59809870  0.89553647  0.94493822     0.14700
C841        C  0.71181184  0.10561385  0.87329346    -0.18100
C842        C  0.69913599  0.08719829  0.89478431    -0.20300
C843        C  0.68530653  0.09953790  0.91986001     0.20300
C844        C  0.68532867  0.13069754  0.92404833    -0.03200
C845        C  0.69810644  0.14935689  0.90224890    -0.06300
C846        C  0.71080652  0.13665384  0.87652419     0.20600
C847        C  0.69689011  0.18064831  0.90546004     0.18800
C848        C  0.68394021  0.19285684  0.93115674    -0.17800
C849        C  0.67138696  0.17431877  0.95288436    -0.20000
C850        C  0.67144968  0.14321258  0.94928814     0.20300
C851        C  0.65683532  0.12444368  0.96969863    -0.33000
C852        C  0.65540015  0.09348135  0.96462229     0.01000
C853        C  0.67037662  0.08125101  0.94008803    -0.24300
C854        C  0.72079272  0.15512751  0.85365472    -0.28900
C855        C  0.71801537  0.18620457  0.85575639     0.06600
C856        C  0.70716078  0.19900386  0.88219569    -0.27600
H857        H  0.72161950  0.09558792  0.85368607     0.11400
H858        H  0.69944447  0.06330319  0.89138513     0.12500
H859        H  0.68284481  0.21678130  0.93410654     0.11600
H860        H  0.66093517  0.18436247  0.97213686     0.10800
H861        H  0.64526830  0.13402940  0.98855348     0.16200
H862        H  0.66965561  0.05740968  0.93623866     0.12100
H863        H  0.72932444  0.14522272  0.83336073     0.15000
H864        H  0.70477019  0.22297073  0.88378016     0.14700
C865        C  0.46224618  0.20225589  0.20097882    -0.18100
C866        C  0.48073582  0.18015414  0.18943280    -0.20300
C867        C  0.46868304  0.15365482  0.17812134     0.20300
C868        C  0.43776152  0.14898173  0.17913091    -0.03200
C869        C  0.41904332  0.17135763  0.19081298    -0.06300
C870        C  0.43141204  0.19821210  0.20139176     0.20600
C871        C  0.38797445  0.16728891  0.19100005     0.18800
C872        C  0.37605644  0.14054234  0.17998680    -0.17800
C873        C  0.39463454  0.11831734  0.16842927    -0.20000
C874        C  0.42550450  0.12240716  0.16762769     0.20300
C875        C  0.44425119  0.10094146  0.15462349    -0.33000
C876        C  0.47497516  0.10611367  0.15250010     0.01000
C877        C  0.48698886  0.13224853  0.16490171    -0.24300
C878        C  0.41273480  0.22107326  0.21113518    -0.28900
C879        C  0.38173399  0.21777139  0.21037362     0.06600
C880        C  0.36943983  0.19048675  0.20109337    -0.27600
H881        H  0.47203540  0.22277572  0.20906688     0.11400
H882        H  0.50444372  0.18402433  0.18884543     0.12500
H883        H  0.35229892  0.13699643  0.17985959     0.11600
H884        H  0.38479894  0.09810996  0.15965922     0.10800
H885        H  0.43480439  0.08097119  0.14489409     0.16200
H886        H  0.51064644  0.13634418  0.16351474     0.12100
H887        H  0.42235518  0.24201046  0.21838808     0.15000
H888        H  0.34556246  0.18795062  0.20014253     0.14700
C889        C  0.96283822  0.37516969  0.87255152    -0.18100
C890        C  0.97967778  0.39837537  0.88453164    -0.20300
C891        C  0.96653483  0.42596498  0.89080936     0.20300
C892        C  0.93634363  0.43057394  0.88400695    -0.03200
C893        C  0.91928984  0.40708163  0.87181868    -0.06300
C894        C  0.93257565  0.37917172  0.86663881     0.20600
C895        C  0.88876383  0.41111736  0.86599638     0.18800
C896        C  0.87596398  0.43913254  0.87134185    -0.17800
C897        C  0.89288814  0.46244911  0.88342718    -0.20000
C898        C  0.92295739  0.45822140  0.89042126     0.20300
C899        C  0.93960695  0.48069345  0.90463769    -0.33000
C900        C  0.96948198  0.47578652  0.91256483     0.01000
C901        C  0.98286967  0.44857732  0.90475384    -0.24300
C902        C  0.91516081  0.35525524  0.85702954    -0.28900
C903        C  0.88435836  0.35835539  0.85301604     0.06600
C904        C  0.87142600  0.38669986  0.85638576    -0.27600
H905        H  0.97333270  0.35382990  0.86860597     0.11400
H906        H  0.00284987  0.39451254  0.88953307     0.12500
H907        H  0.85265882  0.44280687  0.86688164     0.11600
H908        H  0.88225673  0.48359756  0.88796073     0.10800
H909        H  0.92905584  0.50162489  0.91028761     0.16200
H910        H  0.00582608  0.44446339  0.91054013     0.12100
H911        H  0.92547992  0.33365414  0.85403249     0.15000
H912        H  0.84773984  0.38932001  0.85337501     0.14700
C913        C  0.89769152  0.69732340  0.08442500    -0.18100
C914        C  0.87434585  0.70859510  0.10153452    -0.20300
C915        C  0.87735494  0.71179544  0.13244497     0.20300
C916        C  0.90453394  0.70475271  0.14614325    -0.03200
C917        C  0.92811783  0.69323958  0.12884195    -0.06300
C918        C  0.92443556  0.68897566  0.09793764     0.20600
C919        C  0.95485929  0.68481136  0.14265494     0.18800
C920        C  0.95822947  0.68916820  0.17341910    -0.17800
C921        C  0.93488183  0.70061683  0.19055507    -0.20000
C922        C  0.90769392  0.70792928  0.17726469     0.20300
C923        C  0.88320420  0.71690568  0.19462915    -0.33000
C924        C  0.85551204  0.72211129  0.18121292     0.01000
C925        C  0.85318543  0.72050950  0.15000101    -0.24300
C926        C  0.94697928  0.67523735  0.08129109    -0.28900
C927        C  0.97310158  0.66520471  0.09513667     0.06600
C928        C  0.97721101  0.67100427  0.12572121    -0.27600
H929        H  0.89452516  0.69436441  0.06072028     0.11400
H930        H  0.85362941  0.71407092  0.09067256     0.12500
H931        H  0.97869101  0.68299268  0.18438462     0.11600
H932        H  0.93783809  0.70299917  0.21434466     0.10800
H933        H  0.88519345  0.71795203  0.21862361     0.16200
H934        H  0.83203871  0.72480057  0.13939615     0.12100
H935        H  0.94354614  0.67114774  0.05777878     0.15000
H936        H  0.99730577  0.66367568  0.13667489     0.14700
C937        C  0.17761434  0.39532080  0.11216501    -0.18100
C938        C  0.19034799  0.37799746  0.13462895    -0.20300
C939        C  0.19818106  0.39086526  0.16198514     0.20300
C940        C  0.19409787  0.42178864  0.16627715    -0.03200
C941        C  0.18129582  0.43929831  0.14355711    -0.06300
C942        C  0.17252053  0.42585502  0.11659873     0.20600
C943        C  0.17628103  0.46998999  0.14825708     0.18800
C944        C  0.18500023  0.48308770  0.17524857    -0.17800
C945        C  0.19750260  0.46573173  0.19779930    -0.20000
C946        C  0.20158895  0.43499380  0.19372449     0.20300
C947        C  0.21156325  0.41700670  0.21711449    -0.33000
C948        C  0.21401600  0.38590046  0.21362170     0.01000
C949        C  0.20849948  0.37313858  0.18560189    -0.24300
C950        C  0.15796593  0.44292061  0.09492657    -0.28900
C951        C  0.15186766  0.47332990  0.09979303     0.06600
C952        C  0.16177922  0.48681915  0.12632079    -0.27600
H953        H  0.17115112  0.38467221  0.09151735     0.11400
H954        H  0.19336279  0.35435761  0.13086804     0.12500
H955        H  0.18149144  0.50663309  0.17920043     0.11600
H956        H  0.20329570  0.47623377  0.21872341     0.10800
H957        H  0.21605326  0.42706583  0.23859362     0.16200
H958        H  0.21017082  0.34922041  0.18279267     0.12100
H959        H  0.15071574  0.43225941  0.07453966     0.15000
H960        H  0.15739085  0.51021010  0.13035625     0.14700
C961        C  0.89624213  0.70324123  0.94275982    -0.18100
C962        C  0.87218868  0.71577142  0.92773649    -0.20300
C963        C  0.85973672  0.70121530  0.90309023     0.20300
C964        C  0.87196194  0.67404617  0.89308994    -0.03200
C965        C  0.89597556  0.66123690  0.90847388    -0.06300
C966        C  0.90804520  0.67583675  0.93352204     0.20600
C967        C  0.90736742  0.63346339  0.89925654     0.18800
C968        C  0.89515705  0.61909448  0.87436735    -0.17800
C969        C  0.87154025  0.63192885  0.85892377    -0.20000
C970        C  0.85964359  0.65923938  0.86824058     0.20300
C971        C  0.83506227  0.67155077  0.85375852    -0.33000
C972        C  0.82231728  0.69794070  0.86435799     0.01000
C973        C  0.83474137  0.71284412  0.88878467    -0.24300
C974        C  0.93110347  0.66236765  0.94942649    -0.28900
C975        C  0.94190373  0.63420185  0.94097944     0.06600
C976        C  0.93022747  0.62014974  0.91554593    -0.27600
H977        H  0.90527024  0.71472346  0.96194418     0.11400
H978        H  0.86309724  0.73667592  0.93561043     0.12500
H979        H  0.90366386  0.59774915  0.86703704     0.11600
H980        H  0.86226755  0.62025781  0.83997268     0.10800
H981        H  0.82498074  0.65997254  0.83514087     0.16200
H982        H  0.82451978  0.73312580  0.89695605     0.12100
H983        H  0.93985751  0.67335353  0.96903716     0.15000
H984        H  0.93845438  0.59849942  0.90876758     0.14700
C985        C  0.62187968  0.21233583  0.18929126    -0.18100
C986        C  0.60816893  0.18897779  0.17409281    -0.20300
C987        C  0.62510871  0.16903581  0.15712370     0.20300
C988        C  0.65623600  0.17195327  0.15621169    -0.03200
C989        C  0.67012408  0.19528476  0.17190658    -0.06300
C990        C  0.65273050  0.21588019  0.18794987     0.20600
C991        C  0.70125605  0.19860162  0.17073169     0.18800
C992        C  0.71818693  0.17815965  0.15430694    -0.17800
C993        C  0.70434562  0.15519965  0.13840997    -0.20000
C994        C  0.67337129  0.15217347  0.13887655     0.20300
C995        C  0.65913950  0.13030824  0.12168016    -0.33000
C996        C  0.62804550  0.12789164  0.12188594     0.01000
C997        C  0.61130956  0.14684861  0.14028851    -0.24300
C998        C  0.66636206  0.24025865  0.20154705    -0.28900
C999        C  0.69716758  0.24422657  0.19968225     0.06600
C1000       C  0.71469762  0.22291496  0.18509782    -0.27600
H1001       H  0.60831067  0.22792655  0.20168363     0.11400
H1002       H  0.58424943  0.18692141  0.17504558     0.12500
H1003       H  0.74208403  0.18032699  0.15320979     0.11600
H1004       H  0.71783949  0.14009219  0.12536334     0.10800
H1005       H  0.67219608  0.11555009  0.10778938     0.16200
H1006       H  0.58733325  0.14515497  0.14066088     0.12100
H1007       H  0.65290701  0.25658366  0.21314770     0.15000
H1008       H  0.73847818  0.22610991  0.18363514     0.14700
C1009       C  0.41816845  0.35494732  0.68698760    -0.18100
C1010       C  0.43088883  0.36966831  0.66268456    -0.20300
C1011       C  0.42403423  0.39959821  0.65689104     0.20300
C1012       C  0.40341071  0.41453965  0.67520945    -0.03200
C1013       C  0.39112907  0.39993638  0.70009100    -0.06300
C1014       C  0.39871045  0.37004644  0.70615575     0.20600
C1015       C  0.37203528  0.41559938  0.71944069     0.18800
C1016       C  0.36416193  0.44507943  0.71298800    -0.17800
C1017       C  0.37582210  0.45933274  0.68800503    -0.20000
C1018       C  0.39588761  0.44445701  0.66934818     0.20300
C1019       C  0.40952306  0.45943545  0.64573645    -0.33000
C1020       C  0.43150336  0.44535618  0.62860988     0.01000
C1021       C  0.43822397  0.41522472  0.63386942    -0.24300
C1022       C  0.38738640  0.35616975  0.73174622    -0.28900
C1023       C  0.36959491  0.37227895  0.75174342     0.06600
C1024       C  0.36174799  0.40178600  0.74531244    -0.27600
H1025       H  0.42414412  0.33198745  0.69122744     0.11400
H1026       H  0.44648123  0.35777964  0.64870133     0.12500
H1027       H  0.34932042  0.45727695  0.72752651     0.11600
H1028       H  0.36979548  0.48227755  0.68374658     0.10800
H1029       H  0.40433257  0.48267596  0.64185985     0.16200
H1030       H  0.45495415  0.40419741  0.62049568     0.12100
H1031       H  0.39340479  0.33336811  0.73678972     0.15000
H1032       H  0.34766266  0.41402520  0.76059744     0.14700
C1033       C  0.68791426  0.69018511  0.10249369    -0.18100
C1034       C  0.71049900  0.70523220  0.11759324    -0.20300
C1035       C  0.71844049  0.69675592  0.14651264     0.20300
C1036       C  0.70313674  0.67327911  0.16063250    -0.03200
C1037       C  0.68072661  0.65774077  0.14518529    -0.06300
C1038       C  0.67316203  0.66622041  0.11596451     0.20600
C1039       C  0.66632942  0.63337852  0.15875534     0.18800
C1040       C  0.67387572  0.62533163  0.18792195    -0.17800
C1041       C  0.69578941  0.64103196  0.20342040    -0.20000
C1042       C  0.71074488  0.66483075  0.18989110     0.20300
C1043       C  0.73382156  0.67969701  0.20468398    -0.33000
C1044       C  0.74994840  0.70203721  0.19010113     0.01000
C1045       C  0.74199384  0.71073249  0.16123808    -0.24300
C1046       C  0.65132555  0.65029368  0.10052950    -0.28900
C1047       C  0.63733543  0.62556983  0.11363545     0.06600
C1048       C  0.64490769  0.61728889  0.14279806    -0.27600
H1049       H  0.68231488  0.69697813  0.08008627     0.11400
H1050       H  0.72196509  0.72330649  0.10653728     0.12500
H1051       H  0.66296000  0.60674893  0.19868792     0.11600
H1052       H  0.70139729  0.63422770  0.22581870     0.10800
H1053       H  0.74028733  0.67286669  0.22686137     0.16200
H1054       H  0.75453899  0.72805861  0.15010799     0.12100
H1055       H  0.64574215  0.65672754  0.07799513     0.15000
H1056       H  0.63406671  0.59838504  0.15310680     0.14700
C1057       C  0.67408045  0.68307394  0.97207532    -0.18100
C1058       C  0.69669753  0.69596786  0.95525337    -0.20300
C1059       C  0.69413507  0.69786025  0.92425002     0.20300
C1060       C  0.66807989  0.68776834  0.91008467    -0.03200
C1061       C  0.64534650  0.67452693  0.92704889    -0.06300
C1062       C  0.64864040  0.67177582  0.95811032     0.20600
C1063       C  0.61987528  0.66307655  0.91283064     0.18800
C1064       C  0.61688645  0.66601632  0.88190105    -0.17800
C1065       C  0.63939215  0.67929349  0.86506488    -0.20000
C1066       C  0.66529652  0.68973935  0.87887819     0.20300
C1067       C  0.68906269  0.70072525  0.86198072    -0.33000
C1068       C  0.71574179  0.70886140  0.87593776     0.01000
C1069       C  0.71776289  0.70831725  0.90707480    -0.24300
C1070       C  0.62692818  0.65692747  0.97461152    -0.28900
C1071       C  0.60200924  0.64437906  0.96054381     0.06600
C1072       C  0.59832390  0.64810494  0.92967917    -0.27600
H1073       H  0.67681657  0.68126414  0.99593989     0.11400
H1074       H  0.71651267  0.70380164  0.96642354     0.12500
H1075       H  0.59740303  0.65749741  0.87064780     0.11600
H1076       H  0.63686463  0.68069540  0.84115296     0.10800
H1077       H  0.68751413  0.70105768  0.83792763     0.16200
H1078       H  0.73823477  0.71493863  0.91787177     0.12100
H1079       H  0.62993574  0.65443816  0.99839146     0.15000
H1080       H  0.57909853  0.63872867  0.91863694     0.14700
C1081       C  0.35511448  0.39058805  0.15313414    -0.18100
C1082       C  0.37063277  0.41389545  0.13947442    -0.20300
C1083       C  0.40101896  0.41799645  0.14494600     0.20300
C1084       C  0.41563928  0.39909825  0.16522596    -0.03200
C1085       C  0.40017431  0.37528627  0.17850630    -0.06300
C1086       C  0.36982234  0.37075719  0.17216853     0.20600
C1087       C  0.41544521  0.35528674  0.19715884     0.18800
C1088       C  0.44546041  0.36006012  0.20366891    -0.17800
C1089       C  0.46061687  0.38396832  0.19099094    -0.20000
C1090       C  0.44605981  0.40321010  0.17133493     0.20300
C1091       C  0.46176598  0.42569832  0.15676677    -0.33000
C1092       C  0.44785504  0.44344789  0.13527595     0.01000
C1093       C  0.41734368  0.43989204  0.12977148    -0.24300
C1094       C  0.35518445  0.34575548  0.18394564    -0.28900
C1095       C  0.37097711  0.32491059  0.20093411     0.06600
C1096       C  0.40079586  0.33016468  0.20802249    -0.27600
H1097       H  0.33181873  0.38754817  0.14811838     0.11400
H1098       H  0.35899255  0.42836866  0.12419138     0.12500
H1099       H  0.45737110  0.34495010  0.21811118     0.11600
H1100       H  0.48395335  0.38690575  0.19589391     0.10800
H1101       H  0.48531021  0.42826345  0.16093048     0.16200
H1102       H  0.40651431  0.45377046  0.11335474     0.12100
H1103       H  0.33213973  0.34158879  0.17850508     0.15000
H1104       H  0.41280199  0.31419944  0.22148322     0.14700
C1105       C  0.67792896  0.45579255  0.18695447    -0.18100
C1106       C  0.69451583  0.43236551  0.19911478    -0.20300
C1107       C  0.68215812  0.40377281  0.20189946     0.20300
C1108       C  0.65243618  0.39911891  0.19304675    -0.03200
C1109       C  0.63570442  0.42272681  0.18086862    -0.06300
C1110       C  0.64863508  0.45111447  0.17737124     0.20600
C1111       C  0.60628211  0.41763925  0.17143000     0.18800
C1112       C  0.59366897  0.38928134  0.17458430    -0.17800
C1113       C  0.61020867  0.36596148  0.18652849    -0.20000
C1114       C  0.63961766  0.37062883  0.19553568     0.20300
C1115       C  0.65665603  0.34693162  0.20598172    -0.33000
C1116       C  0.68673720  0.35077156  0.21351156     0.01000
C1117       C  0.69918247  0.37952578  0.21227577    -0.24300
C1118       C  0.63230106  0.47398578  0.16362481    -0.28900
C1119       C  0.60313019  0.46879322  0.15355848     0.06600
C1120       C  0.59017788  0.44069367  0.15819581    -0.27600
H1121       H  0.68819880  0.47748009  0.18460118     0.11400
H1122       H  0.71720800  0.43649552  0.20583561     0.12500
H1123       H  0.57113728  0.38501572  0.16738893     0.11600
H1124       H  0.60013340  0.34411702  0.18827813     0.10800
H1125       H  0.64658892  0.32503003  0.20724059     0.16200
H1126       H  0.72231462  0.38273369  0.21792956     0.12100
H1127       H  0.64247778  0.49559056  0.16024227     0.15000
H1128       H  0.56785011  0.43631705  0.15040355     0.14700
C1129       C  0.43958474  0.70165949  0.87149288    -0.18100
C1130       C  0.45458458  0.68499909  0.89294912    -0.20300
C1131       C  0.44242767  0.65829756  0.90361068     0.20300
C1132       C  0.41469721  0.64845858  0.89288424    -0.03200
C1133       C  0.39972530  0.66507652  0.87104210    -0.06300
C1134       C  0.41233308  0.69174456  0.86019184     0.20600
C1135       C  0.37261637  0.65451838  0.85939167     0.18800
C1136       C  0.36019855  0.62810016  0.87039266    -0.17800
C1137       C  0.37483849  0.61186429  0.89238482    -0.20000
C1138       C  0.40221187  0.62168731  0.90350037     0.20300
C1139       C  0.41750242  0.60497700  0.92474145    -0.33000
C1140       C  0.44533568  0.61440601  0.93523796     0.01000
C1141       C  0.45765468  0.64111094  0.92457805    -0.24300
C1142       C  0.39805577  0.70731325  0.83736684    -0.28900
C1143       C  0.37197698  0.69596148  0.82483424     0.06600
C1144       C  0.35903723  0.66995723  0.83612859    -0.27600
H1145       H  0.44956555  0.72202794  0.86333690     0.11400
H1146       H  0.47581709  0.69287214  0.90102961     0.12500
H1147       H  0.33936531  0.61979715  0.86170947     0.11600
H1148       H  0.36497497  0.59136815  0.90036945     0.10800
H1149       H  0.40793028  0.58431693  0.93270246     0.16200
H1150       H  0.47904459  0.64858639  0.93266033     0.12100
H1151       H  0.40807324  0.72722188  0.82813479     0.15000
H1152       H  0.33894060  0.66129115  0.82608038     0.14700
C1153       C  0.36735169  0.46122643  0.87872123    -0.18100
C1154       C  0.37920047  0.47786266  0.90214330    -0.20300
C1155       C  0.38809984  0.46377556  0.92847166     0.20300
C1156       C  0.38365992  0.43287588  0.93187957    -0.03200
C1157       C  0.37150806  0.41608592  0.90827252    -0.06300
C1158       C  0.36415287  0.43027946  0.88131471     0.20600
C1159       C  0.36818965  0.38494587  0.91107221     0.18800
C1160       C  0.37580629  0.37113123  0.93798150    -0.17800
C1161       C  0.38800658  0.38778040  0.96135342    -0.20000
C1162       C  0.39267987  0.41854412  0.95826383     0.20300
C1163       C  0.40736890  0.43498627  0.98046775    -0.33000
C1164       C  0.41325532  0.46553905  0.97648911     0.01000
C1165       C  0.40258627  0.47987781  0.95083083    -0.24300
C1166       C  0.35534390  0.41313768  0.85686192    -0.28900
C1167       C  0.35389960  0.38195256  0.85883811     0.06600
C1168       C  0.35896933  0.36805658  0.88637931    -0.27600
H1169       H  0.36156158  0.47244605  0.85822614     0.11400
H1170       H  0.38227970  0.50162107  0.89930089     0.12500
H1171       H  0.37323805  0.34729256  0.94060917     0.11600
H1172       H  0.39455588  0.37643949  0.98154392     0.10800
H1173       H  0.41525319  0.42373990  0.00023566     0.16200
H1174       H  0.40666579  0.50344217  0.94757220     0.12100
H1175       H  0.35092409  0.42399277  0.83580935     0.15000
H1176       H  0.35777989  0.34400758  0.88803732     0.14700
C1177       C  0.36674241  0.21522999  0.44659296    -0.18100
C1178       C  0.38970587  0.20068303  0.46150824    -0.20300
C1179       C  0.40463718  0.17682543  0.44798632     0.20300
C1180       C  0.39705731  0.16814907  0.41878543    -0.03200
C1181       C  0.37428599  0.18321480  0.40350658    -0.06300
C1182       C  0.35860999  0.20637691  0.41779068     0.20600
C1183       C  0.36646400  0.17435576  0.37438619     0.18800
C1184       C  0.38176009  0.15083280  0.36071015    -0.17800
C1185       C  0.40401641  0.13558995  0.37604638    -0.20000
C1186       C  0.41157247  0.14383448  0.40519089     0.20300
C1187       C  0.43287872  0.12777448  0.42121629    -0.33000
C1188       C  0.44021614  0.13603963  0.45046738     0.01000
C1189       C  0.42642768  0.16097348  0.46346208    -0.24300
C1190       C  0.33430425  0.21939772  0.40349329    -0.28900
C1191       C  0.32594167  0.21003004  0.37490573     0.06600
C1192       C  0.34262868  0.18828055  0.36001555    -0.27600
H1193       H  0.35502006  0.23308411  0.45777013     0.11400
H1194       H  0.39532635  0.20764373  0.48389449     0.12500
H1195       H  0.37602070  0.14374848  0.33839649     0.11600
H1196       H  0.41505447  0.11707859  0.36524407     0.10800
H1197       H  0.44361419  0.10873435  0.41100697     0.16200
H1198       H  0.43186331  0.16739621  0.48607031     0.12100
H1199       H  0.32128682  0.23620752  0.41489189     0.15000
H1200       H  0.33583492  0.18087452  0.33808424     0.14700
C1201       C  0.87076854  0.96040824  0.37753092    -0.18100
C1202       C  0.88373965  0.97660172  0.40067133    -0.20300
C1203       C  0.89416311  0.96198839  0.42612880     0.20300
C1204       C  0.89046682  0.93090543  0.42884514    -0.03200
C1205       C  0.87715857  0.91455041  0.40553277    -0.06300
C1206       C  0.86788164  0.92937163  0.37955183     0.20600
C1207       C  0.87428697  0.88328876  0.40768436     0.18800
C1208       C  0.88393142  0.86886575  0.43359765    -0.17800
C1209       C  0.89721552  0.88508780  0.45668588    -0.20000
C1210       C  0.90106478  0.91603549  0.45430841     0.20300
C1211       C  0.91623792  0.93221437  0.47638337    -0.33000
C1212       C  0.92109638  0.96305938  0.47319131     0.01000
C1213       C  0.90919367  0.97782313  0.44834748    -0.24300
C1214       C  0.85717235  0.91280333  0.35546858    -0.28900
C1215       C  0.85563854  0.88154505  0.35678328     0.06600
C1216       C  0.86317716  0.86694661  0.38334673    -0.27600
H1217       H  0.86361752  0.97209077  0.35774000     0.11400
H1218       H  0.88630132  0.00047591  0.39832391     0.12500
H1219       H  0.88186200  0.84492850  0.43571206     0.11600
H1220       H  0.90507238  0.87331237  0.47614474     0.10800
H1221       H  0.92507861  0.92060844  0.49552740     0.16200
H1222       H  0.91250136  0.00158393  0.44569680     0.12100
H1223       H  0.85116932  0.92419234  0.33510063     0.15000
H1224       H  0.86225222  0.84285174  0.38437881     0.14700
C1225       C  0.17885102  0.95345779  0.68989181    -0.18100
C1226       C  0.19537430  0.92982290  0.70162065    -0.20300
C1227       C  0.18253152  0.90152927  0.70498428     0.20300
C1228       C  0.15245673  0.89732157  0.69731177    -0.03200
C1229       C  0.13578652  0.92114766  0.68564908    -0.06300
C1230       C  0.14916489  0.94923788  0.68141461     0.20600
C1231       C  0.10598298  0.91653222  0.67732406     0.18800
C1232       C  0.09289889  0.88848277  0.68123128    -0.17800
C1233       C  0.10941943  0.86488976  0.69261199    -0.20000
C1234       C  0.13924022  0.86902547  0.70033230     0.20300
C1235       C  0.15629538  0.84500817  0.70994101    -0.33000
C1236       C  0.18658974  0.84857152  0.71631354     0.01000
C1237       C  0.19942494  0.87710195  0.71472214    -0.24300
C1238       C  0.13288040  0.97222999  0.66790930    -0.28900
C1239       C  0.10337632  0.96740814  0.65872111     0.06600
C1240       C  0.08997471  0.93969170  0.66427366    -0.27600
H1241       H  0.18945866  0.97490723  0.68695167     0.11400
H1242       H  0.21838256  0.93352062  0.70746494     0.12500
H1243       H  0.07003145  0.88463345  0.67492890     0.11600
H1244       H  0.09901580  0.84324807  0.69485699     0.10800
H1245       H  0.14609736  0.82318733  0.71150295     0.16200
H1246       H  0.22278664  0.87999731  0.71955692     0.12100
H1247       H  0.14340976  0.99354168  0.66383974     0.15000
H1248       H  0.06732835  0.93562779  0.65729124     0.14700
C1249       C  0.17986006  0.15558453  0.71738034    -0.18100
C1250       C  0.15724292  0.14050008  0.70215451    -0.20300
C1251       C  0.15594161  0.14114569  0.67095404     0.20300
C1252       C  0.17711055  0.15792499  0.65501235    -0.03200
C1253       C  0.20003617  0.17276834  0.67028327    -0.06300
C1254       C  0.20169391  0.17135498  0.70163711     0.20600
C1255       C  0.22184230  0.18826138  0.65402282     0.18800
C1256       C  0.22015458  0.18974472  0.62295027    -0.17800
C1257       C  0.19725759  0.17541063  0.60786789    -0.20000
C1258       C  0.17590641  0.15922149  0.62367529     0.20300
C1259       C  0.15380287  0.14372739  0.60852242    -0.33000
C1260       C  0.13337092  0.12612863  0.62405002     0.01000
C1261       C  0.13432198  0.12491150  0.65527218    -0.24300
C1262       C  0.22577964  0.18475748  0.71642940    -0.28900
C1263       C  0.24828272  0.19877266  0.69994791     0.06600
C1264       C  0.24563263  0.20114792  0.66894848    -0.27600
H1265       H  0.18065847  0.15435169  0.74142081     0.11400
H1266       H  0.14101328  0.12797737  0.71476593     0.12500
H1267       H  0.23681564  0.20163000  0.61027151     0.11600
H1268       H  0.19655517  0.17652396  0.58381172     0.10800
H1269       H  0.15314592  0.14445828  0.58441960     0.16200
H1270       H  0.11830800  0.11144768  0.66720549     0.12100
H1271       H  0.22782378  0.18293901  0.74036892     0.15000
H1272       H  0.26270071  0.21243185  0.65621653     0.14700
C1273       C  0.12198859  0.17035094  0.39128490    -0.18100
C1274       C  0.14408261  0.18461556  0.37471602    -0.20300
C1275       C  0.16958393  0.19576458  0.38871672     0.20300
C1276       C  0.17249375  0.19308453  0.41988008    -0.03200
C1277       C  0.15013406  0.17874905  0.43662610    -0.06300
C1278       C  0.12495061  0.16702214  0.42217301     0.20600
C1279       C  0.15338141  0.17543564  0.46766840     0.18800
C1280       C  0.17863658  0.18706003  0.48177263    -0.17800
C1281       C  0.20086570  0.20108023  0.46517097    -0.20000
C1282       C  0.19818207  0.20381904  0.43419090     0.20300
C1283       C  0.22125164  0.21596889  0.41714874    -0.33000
C1284       C  0.21907501  0.21758124  0.38593765     0.01000
C1285       C  0.19274512  0.20835824  0.37197496    -0.24300
C1286       C  0.10349953  0.15156550  0.43870023    -0.28900
C1287       C  0.10684635  0.14746570  0.46957215     0.06600
C1288       C  0.13170380  0.15994288  0.48393637    -0.27600
H1289       H  0.10275050  0.16151899  0.37984833     0.11400
H1290       H  0.14146948  0.18642906  0.35084314     0.12500
H1291       H  0.18145999  0.18482550  0.50558950     0.11600
H1292       H  0.22042576  0.20930509  0.47650974     0.10800
H1293       H  0.24144482  0.22316314  0.42809831     0.16200
H1294       H  0.19101977  0.20924277  0.34795247     0.12100
H1295       H  0.08446014  0.14219733  0.42733326     0.15000
H1296       H  0.13456876  0.15704578  0.50768479     0.14700
C1297       C  0.94250219  0.89419841  0.69975274    -0.18100
C1298       C  0.92550399  0.87119271  0.71191053    -0.20300
C1299       C  0.90192816  0.85877885  0.69575027     0.20300
C1300       C  0.89473046  0.87023941  0.66747231    -0.03200
C1301       C  0.91198478  0.89331194  0.65516004    -0.06300
C1302       C  0.93624495  0.90506014  0.67121007     0.20600
C1303       C  0.90557130  0.90388686  0.62638987     0.18800
C1304       C  0.88148878  0.89202287  0.61054670    -0.17800
C1305       C  0.86434664  0.86917441  0.62276234    -0.20000
C1306       C  0.87104898  0.85783243  0.65098875     0.20300
C1307       C  0.85536888  0.83347870  0.66250309    -0.33000
C1308       C  0.86346292  0.82132143  0.68995868     0.01000
C1309       C  0.88623335  0.83427873  0.70677609    -0.24300
C1310       C  0.95436497  0.92676475  0.65806285    -0.28900
C1311       C  0.94871284  0.93662055  0.62894803     0.06600
C1312       C  0.92387495  0.92549044  0.61355486    -0.27600
H1313       H  0.96095333  0.90305122  0.71241605     0.11400
H1314       H  0.93118123  0.86268953  0.73370062     0.12500
H1315       H  0.87626364  0.90002139  0.58845194     0.11600
H1316       H  0.84624498  0.85993813  0.60986463     0.10800
H1317       H  0.83795219  0.82302751  0.64953634     0.16200
H1318       H  0.89243931  0.82448336  0.72789634     0.12100
H1319       H  0.97337806  0.93525425  0.67014416     0.15000
H1320       H  0.91912062  0.93309626  0.59120240     0.14700
C1321       C  0.18282002  0.61174697  0.18887728    -0.18100
C1322       C  0.19564447  0.62585687  0.21334545    -0.20300
C1323       C  0.18834643  0.65542116  0.22017638     0.20300
C1324       C  0.16815507  0.67112976  0.20214518    -0.03200
C1325       C  0.15481447  0.65669594  0.17772628    -0.06300
C1326       C  0.16229240  0.62689956  0.17110693     0.20600
C1327       C  0.13365803  0.67183879  0.16030274     0.18800
C1328       C  0.12663444  0.70155928  0.16705812    -0.17800
C1329       C  0.14028435  0.71608079  0.19102665    -0.20000
C1330       C  0.16091935  0.70101919  0.20884570     0.20300
C1331       C  0.17397655  0.71495090  0.23363054    -0.33000
C1332       C  0.19326596  0.69887050  0.25206169     0.01000
C1333       C  0.20050007  0.66931695  0.24510970    -0.24300
C1334       C  0.14868165  0.61248574  0.14720769    -0.28900
C1335       C  0.12701613  0.62704471  0.13023534     0.06600
C1336       C  0.11961273  0.65678232  0.13678858    -0.27600
H1337       H  0.18866594  0.58882825  0.18407797     0.11400
H1338       H  0.21114834  0.61359986  0.22702742     0.12500
H1339       H  0.11048636  0.71353056  0.15388564     0.11600
H1340       H  0.13439863  0.73897140  0.19587016     0.10800
H1341       H  0.16827860  0.73772259  0.23927659     0.16200
H1342       H  0.21553954  0.65705948  0.25935753     0.12100
H1343       H  0.15418673  0.58944046  0.14251360     0.15000
H1344       H  0.10289737  0.66808543  0.12371035     0.14700
C1345       C  0.72230529  0.45140612  0.39834616    -0.18100
C1346       C  0.69931680  0.46494012  0.41409175    -0.20300
C1347       C  0.67495787  0.44809462  0.42369476     0.20300
C1348       C  0.67315514  0.41753349  0.41660598    -0.03200
C1349       C  0.69609935  0.40399096  0.40018266    -0.06300
C1350       C  0.72107063  0.42093647  0.39167471     0.20600
C1351       C  0.69460139  0.37333448  0.39324182     0.18800
C1352       C  0.66985886  0.35668577  0.40235838    -0.17800
C1353       C  0.64727178  0.37006151  0.41907033    -0.20000
C1354       C  0.64890967  0.40036342  0.42666883     0.20300
C1355       C  0.62711482  0.41373947  0.44458612    -0.33000
C1356       C  0.62907642  0.44414796  0.45187403     0.01000
C1357       C  0.65275242  0.46121804  0.44088788    -0.24300
C1358       C  0.74493523  0.40688746  0.37773416    -0.28900
C1359       C  0.74399194  0.37630598  0.37168600     0.06600
C1360       C  0.71848185  0.35971580  0.37848595    -0.27600
H1361       H  0.74128753  0.46467637  0.39179828     0.09000
H1362       H  0.70090224  0.48844760  0.41933871     0.12500
H1363       H  0.66832264  0.33316310  0.39718518     0.11600
H1364       H  0.62871349  0.35660348  0.42639716     0.10800
H1365       H  0.60867617  0.40060071  0.45278481     0.16200
H1366       H  0.65442374  0.48464782  0.44654420     0.12100
H1367       H  0.76472580  0.41953065  0.37235370     0.15000
H1368       H  0.71804649  0.33599038  0.37399035     0.14700
C1369       C  0.11185979  0.67894801  0.69451182    -0.18100
C1370       C  0.12747519  0.70133734  0.70935931    -0.20300
C1371       C  0.15593304  0.70953695  0.69984168     0.20300
C1372       C  0.16915462  0.69461852  0.67557797    -0.03200
C1373       C  0.15318545  0.67234271  0.66028959    -0.06300
C1374       C  0.12437121  0.66462550  0.66977112     0.20600
C1375       C  0.16573231  0.65834877  0.63512635     0.18800
C1376       C  0.19449844  0.66613927  0.62606613    -0.17800
C1377       C  0.21049523  0.68802088  0.64144514    -0.20000
C1378       C  0.19789488  0.70266611  0.66598066     0.20300
C1379       C  0.21289682  0.72608936  0.68028490    -0.33000
C1380       C  0.19898001  0.74195628  0.70327625     0.01000
C1381       C  0.17087683  0.73324281  0.71336455    -0.24300
C1382       C  0.10830875  0.64309466  0.65406762    -0.28900
C1383       C  0.12033958  0.62945012  0.62861614     0.06600
C1384       C  0.14912247  0.63713539  0.61928053    -0.27600
H1385       H  0.08976839  0.67320160  0.70205556     0.11400
H1386       H  0.11711735  0.71255164  0.72801618     0.12500
H1387       H  0.20451534  0.65552463  0.60688346     0.11600
H1388       H  0.23249437  0.69392392  0.63376604     0.10800
H1389       H  0.23446922  0.73320546  0.67235886     0.16200
H1390       H  0.16024758  0.74569224  0.73110209     0.12100
H1391       H  0.08607406  0.63746209  0.66131829     0.15000
H1392       H  0.15859796  0.62657808  0.59977453     0.14700
C1393       C  0.88742940  0.61181372  0.66942528    -0.18100
C1394       C  0.86956885  0.63519074  0.67954446    -0.20300
C1395       C  0.88218950  0.66271474  0.68724306     0.20300
C1396       C  0.91323841  0.66647878  0.68533097    -0.03200
C1397       C  0.93127015  0.64284577  0.67527876    -0.06300
C1398       C  0.91823133  0.61553484  0.66691953     0.20600
C1399       C  0.96221238  0.64687696  0.67272238     0.18800
C1400       C  0.97492725  0.67421270  0.68091152    -0.17800
C1401       C  0.95705524  0.69768284  0.69069688    -0.20000
C1402       C  0.92619851  0.69414364  0.69256385     0.20300
C1403       C  0.90801211  0.71807820  0.70060302    -0.33000
C1404       C  0.87701895  0.71477065  0.70173038     0.01000
C1405       C  0.86427347  0.68682891  0.69582655    -0.24300
C1406       C  0.93606500  0.59277423  0.65526484    -0.28900
C1407       C  0.96679023  0.59700636  0.65155268     0.06600
C1408       C  0.97977059  0.62389841  0.66105846    -0.27600
H1409       H  0.87708493  0.59095669  0.66310615     0.11400
H1410       H  0.84580560  0.63190529  0.68083818     0.12500
H1411       H  0.99864511  0.67764453  0.67917097     0.11600
H1412       H  0.96732180  0.71877887  0.69631549     0.10800
H1413       H  0.91795309  0.73955723  0.70538386     0.16200
H1414       H  0.84038114  0.68427438  0.69646348     0.12100
H1415       H  0.92578878  0.57214267  0.64810678     0.15000
H1416       H  0.00340071  0.62741833  0.65838361     0.14700
C1417       C  0.13750872  0.35608803  0.37632448    -0.18100
C1418       C  0.12382253  0.37046304  0.40034412    -0.20300
C1419       C  0.13308613  0.39899622  0.40921645     0.20300
C1420       C  0.15673332  0.41293543  0.39407899    -0.03200
C1421       C  0.17013140  0.39872053  0.36956753    -0.06300
C1422       C  0.16043549  0.37016341  0.36057092     0.20600
C1423       C  0.19271632  0.41346387  0.35358985     0.18800
C1424       C  0.20250051  0.44163345  0.36281817    -0.17800
C1425       C  0.18960856  0.45546209  0.38742194    -0.20000
C1426       C  0.16650453  0.44147158  0.40289922     0.20300
C1427       C  0.15242414  0.45600907  0.42645136    -0.33000
C1428       C  0.12804792  0.44292137  0.44083358     0.01000
C1429       C  0.11868572  0.41421040  0.43240019    -0.24300
C1430       C  0.17333516  0.35665616  0.33551531    -0.28900
C1431       C  0.19490243  0.37195253  0.31900444     0.06600
C1432       C  0.20466165  0.40011124  0.32822238    -0.27600
H1433       H  0.12978547  0.33419790  0.36972099     0.11400
H1434       H  0.10578640  0.35939157  0.41178743     0.12500
H1435       H  0.21991602  0.45310629  0.35081178     0.11600
H1436       H  0.19729870  0.47738346  0.39397870     0.10800
H1437       H  0.15965117  0.47820087  0.43268365     0.16200
H1438       H  0.09999513  0.40394038  0.44355990     0.12100
H1439       H  0.16578362  0.33494268  0.32811140     0.15000
H1440       H  0.22147008  0.41169189  0.31541652     0.14700
C1441       C  0.19665177  0.69047034  0.43803899    -0.18100
C1442       C  0.18472235  0.67290966  0.46082909    -0.20300
C1443       C  0.17687778  0.64309055  0.45549438     0.20300
C1444       C  0.18213755  0.63051825  0.42722969    -0.03200
C1445       C  0.19414658  0.64823130  0.40424662    -0.06300
C1446       C  0.20095467  0.67854286  0.40948360     0.20600
C1447       C  0.19818246  0.63589438  0.37571162     0.18800
C1448       C  0.19125255  0.60584682  0.37055607    -0.17800
C1449       C  0.17945815  0.58831229  0.39330692    -0.20000
C1450       C  0.17436897  0.60055834  0.42156714     0.20300
C1451       C  0.16065151  0.58366472  0.44387607    -0.33000
C1452       C  0.15405900  0.59640054  0.47171586     0.01000
C1453       C  0.16291280  0.62596077  0.47755765    -0.24300
C1454       C  0.21051712  0.69664944  0.38575839    -0.28900
C1455       C  0.21282544  0.68476818  0.35689890     0.06600
C1456       C  0.20772070  0.65411831  0.35242693    -0.27600
H1457       H  0.20183209  0.71360081  0.44256994     0.11400
H1458       H  0.18100150  0.68286876  0.48247501     0.12500
H1459       H  0.19429994  0.59608274  0.34871125     0.11600
H1460       H  0.17369281  0.56534877  0.38860477     0.10800
H1461       H  0.15400336  0.56094835  0.43908442     0.16200
H1462       H  0.15818287  0.63595341  0.49900098     0.12100
H1463       H  0.21430700  0.72021948  0.38936327     0.15000
H1464       H  0.20984150  0.64463037  0.33032934     0.14700
C1465       C  0.86991078  0.43794345  0.70806050    -0.18100
C1466       C  0.89415752  0.45074670  0.69344857    -0.20300
C1467       C  0.90547218  0.43781005  0.66736434     0.20300
C1468       C  0.89267372  0.41134130  0.65626122    -0.03200
C1469       C  0.86796642  0.39869642  0.67070670    -0.06300
C1470       C  0.85642738  0.41216174  0.69666247     0.20600
C1471       C  0.85433980  0.37302366  0.65871353     0.18800
C1472       C  0.86617983  0.35955991  0.63318461    -0.17800
C1473       C  0.89092412  0.37185076  0.61912499    -0.20000
C1474       C  0.90398949  0.39796276  0.63021127     0.20300
C1475       C  0.92748337  0.41147311  0.61505548    -0.33000
C1476       C  0.93939586  0.43863183  0.62509632     0.01000
C1477       C  0.92871348  0.45134912  0.65165491    -0.24300
C1478       C  0.83123033  0.39994294  0.71030407    -0.28900
C1479       C  0.81714024  0.37509700  0.69770905     0.06600
C1480       C  0.82876648  0.36161858  0.67212905    -0.27600
H1481       H  0.86135900  0.44851992  0.72796644     0.11400
H1482       H  0.90381062  0.47099930  0.70232984     0.12500
H1483       H  0.85607247  0.33972598  0.62387548     0.11600
H1484       H  0.89943992  0.36130197  0.59918601     0.10800
H1485       H  0.93556241  0.40147644  0.59463994     0.16200
H1486       H  0.93796720  0.47214372  0.65971003     0.12100
H1487       H  0.82200354  0.41022837  0.73008118     0.15000
H1488       H  0.81778111  0.34228996  0.66269190     0.14700
C1489       C  0.92977469  0.37128292  0.37919307    -0.18100
C1490       C  0.95355231  0.38253280  0.39583871    -0.20300
C1491       C  0.94963750  0.39075653  0.42573810     0.20300
C1492       C  0.92161391  0.38697052  0.43916005    -0.03200
C1493       C  0.89758206  0.37584792  0.42231296    -0.06300
C1494       C  0.90159050  0.36818276  0.39208149     0.20600
C1495       C  0.86935488  0.37323779  0.43552163     0.18800
C1496       C  0.86550078  0.38083786  0.46555399    -0.17800
C1497       C  0.88932134  0.39159911  0.48227580    -0.20000
C1498       C  0.91734928  0.39508031  0.46919548     0.20300
C1499       C  0.94090171  0.40737766  0.48541854    -0.33000
C1500       C  0.96866846  0.41232244  0.47196944     0.01000
C1501       C  0.97297431  0.40346243  0.44219420    -0.24300
C1502       C  0.87714683  0.35857822  0.37508845    -0.28900
C1503       C  0.84872477  0.35727601  0.38788407     0.06600
C1504       C  0.84522822  0.36400978  0.41826553    -0.27600
H1505       H  0.93331538  0.36552004  0.35605637     0.11400
H1506       H  0.97493275  0.38519422  0.38518509     0.12500
H1507       H  0.84393834  0.37888264  0.47600217     0.11600
H1508       H  0.88568860  0.39771088  0.50531452     0.10800
H1509       H  0.93719205  0.41417307  0.50826698     0.16200
H1510       H  0.99425697  0.40708004  0.43160141     0.12100
H1511       H  0.87995078  0.35359808  0.35166006     0.15000
H1512       H  0.82343293  0.36277697  0.42837652     0.14700
C1513       C  0.35150749  0.88161735  0.12156993    -0.18100
C1514       C  0.37486437  0.89695086  0.10808307    -0.20300
C1515       C  0.39450111  0.91405541  0.12526645     0.20300
C1516       C  0.39096461  0.91529279  0.15641156    -0.03200
C1517       C  0.36761203  0.89943196  0.17009805    -0.06300
C1518       C  0.34756800  0.88292762  0.15248680     0.20600
C1519       C  0.36392868  0.90062646  0.20127164     0.18800
C1520       C  0.38375744  0.91757689  0.21842345    -0.17800
C1521       C  0.40668022  0.93363141  0.20480007    -0.20000
C1522       C  0.41037931  0.93280510  0.17379222     0.20300
C1523       C  0.43282061  0.94948374  0.15979980    -0.33000
C1524       C  0.43632136  0.94850152  0.12867606     0.01000
C1525       C  0.41725359  0.93035630  0.11171220    -0.24300
C1526       C  0.32347404  0.86865883  0.16597903    -0.28900
C1527       C  0.31927522  0.87023493  0.19691373     0.06600
C1528       C  0.33999444  0.88557932  0.21457130    -0.27600
H1529       H  0.33634353  0.86895635  0.10777658     0.11400
H1530       H  0.37731509  0.89577848  0.08413574     0.12500
H1531       H  0.38126115  0.91879711  0.24235887     0.11600
H1532       H  0.42140597  0.94687352  0.21852031     0.10800
H1533       H  0.44743114  0.96330164  0.17309180     0.16200
H1534       H  0.41955597  0.92951756  0.08772532     0.12100
H1535       H  0.30764827  0.85663320  0.15232865     0.15000
H1536       H  0.33667952  0.88699080  0.23841116     0.14700
C1537       C  0.87431019  0.12662861  0.40823177    -0.18100
C1538       C  0.85950605  0.14290436  0.38633098    -0.20300
C1539       C  0.87533913  0.16167514  0.36712465     0.20300
C1540       C  0.90640983  0.16421282  0.37010950    -0.03200
C1541       C  0.92131912  0.14790014  0.39232315    -0.06300
C1542       C  0.90517797  0.12892364  0.41135982     0.20600
C1543       C  0.95237875  0.15029960  0.39522343     0.18800
C1544       C  0.96825064  0.16892433  0.37587466    -0.17800
C1545       C  0.95351864  0.18484731  0.35364515    -0.20000
C1546       C  0.92264955  0.18258818  0.35052902     0.20300
C1547       C  0.90778751  0.19776052  0.32774874    -0.33000
C1548       C  0.87696097  0.19508141  0.32465595     0.01000
C1549       C  0.86077776  0.17733897  0.34449017    -0.24300
C1550       C  0.92018399  0.11236695  0.43301905    -0.28900
C1551       C  0.95115943  0.11459079  0.43609720     0.06600
C1552       C  0.96706118  0.13379621  0.41718801    -0.27600
H1553       H  0.86160869  0.11212582  0.42266217     0.11400
H1554       H  0.83568984  0.14060942  0.38424516     0.12500
H1555       H  0.99210518  0.17097770  0.37776817     0.11600
H1556       H  0.96630237  0.19882406  0.33877702     0.10800
H1557       H  0.92020161  0.21105850  0.31194039     0.16200
H1558       H  0.83705571  0.17482888  0.34149914     0.12100
H1559       H  0.90767976  0.09768841  0.44746312     0.15000
H1560       H  0.99093699  0.13557940  0.41922465     0.14700
C1561       C  0.11735363  0.39179575  0.87581089    -0.18100
C1562       C  0.13308428  0.36859713  0.86235700    -0.20300
C1563       C  0.15947977  0.35813298  0.87503343     0.20300
C1564       C  0.17041883  0.37141379  0.90131311    -0.03200
C1565       C  0.15431274  0.39456176  0.91511724    -0.06300
C1566       C  0.12764242  0.40472987  0.90230145     0.20600
C1567       C  0.16458617  0.40710320  0.94200550     0.18800
C1568       C  0.19116633  0.39679397  0.95450910    -0.17800
C1569       C  0.20728971  0.37401891  0.94068837    -0.20000
C1570       C  0.19701012  0.36102742  0.91421947     0.20300
C1571       C  0.21224218  0.33717434  0.90096447    -0.33000
C1572       C  0.20073715  0.32330850  0.87548945     0.01000
C1573       C  0.17461736  0.33398931  0.86245130    -0.24300
C1574       C  0.11143468  0.42730730  0.91641804    -0.28900
C1575       C  0.12119821  0.43961481  0.94350373     0.06600
C1576       C  0.14789797  0.42943108  0.95609756    -0.27600
H1577       H  0.09691182  0.39934900  0.86571222     0.11400
H1578       H  0.12444232  0.35863370  0.84217194     0.12500
H1579       H  0.19938712  0.40620451  0.97512716     0.11600
H1580       H  0.22758197  0.36626843  0.95093764     0.10800
H1581       H  0.23212781  0.32840389  0.91123954     0.16200
H1582       H  0.16568149  0.32287739  0.84297159     0.12100
H1583       H  0.09081866  0.43480904  0.90660912     0.15000
H1584       H  0.15566964  0.43881001  0.97691865     0.14700
C1585       C  0.20121390  0.85937118  0.94474089    -0.18100
C1586       C  0.17786082  0.87343474  0.95958393    -0.20300
C1587       C  0.16519783  0.89946204  0.94799921     0.20300
C1588       C  0.17567317  0.91109526  0.92083054    -0.03200
C1589       C  0.19893147  0.89660841  0.90556869    -0.06300
C1590       C  0.21205938  0.87092325  0.91789608     0.20600
C1591       C  0.20955297  0.90824378  0.87840942     0.18800
C1592       C  0.19670611  0.93416788  0.86675706    -0.17800
C1593       C  0.17391537  0.94875895  0.88210906    -0.20000
C1594       C  0.16338207  0.93753247  0.90925927     0.20300
C1595       C  0.14119162  0.95253633  0.92531477    -0.33000
C1596       C  0.13088761  0.94122384  0.95262561     0.01000
C1597       C  0.14271325  0.91438664  0.96349241    -0.24300
C1598       C  0.23632320  0.85772205  0.90358787    -0.28900
C1599       C  0.24716092  0.86940376  0.87679663     0.06600
C1600       C  0.23339155  0.89423469  0.86391538    -0.27600
H1601       H  0.21099065  0.83961364  0.95441104     0.11400
H1602       H  0.17003625  0.86422827  0.98041826     0.12500
H1603       H  0.20461406  0.94344116  0.84598916     0.11600
H1604       H  0.16469212  0.96898178  0.87285949     0.10800
H1605       H  0.13212147  0.97310975  0.91666765     0.16200
H1606       H  0.13507567  0.90552582  0.98455952     0.12100
H1607       H  0.24716870  0.83862292  0.91349121     0.15000
H1608       H  0.24214558  0.90341075  0.84342550     0.14700
C1609       C  0.19393691  0.87042957  0.10932565    -0.18100
C1610       C  0.17072736  0.88269124  0.09286358    -0.20300
C1611       C  0.14431294  0.89125574  0.10694116     0.20300
C1612       C  0.14088860  0.88662114  0.13777960    -0.03200
C1613       C  0.16432502  0.87406812  0.15442309    -0.06300
C1614       C  0.19109738  0.86645727  0.14013082     0.20600
C1615       C  0.16138681  0.87016917  0.18545864     0.18800
C1616       C  0.13464778  0.87815105  0.19934972    -0.17800
C1617       C  0.11143731  0.89067770  0.18285494    -0.20000
C1618       C  0.11447852  0.89541178  0.15212671     0.20300
C1619       C  0.09201240  0.90956946  0.13566409    -0.33000
C1620       C  0.09567283  0.91511096  0.10501231     0.01000
C1621       C  0.12170149  0.90521583  0.09080996    -0.24300
C1622       C  0.21506386  0.85625431  0.15701125    -0.28900
C1623       C  0.21294611  0.85369747  0.18812654     0.06600
C1624       C  0.18567425  0.85966715  0.20213941    -0.27600
H1625       H  0.21436377  0.86461964  0.09804271     0.11400
H1626       H  0.17367586  0.88603996  0.06918941     0.12500
H1627       H  0.13190746  0.87530580  0.22310918     0.11600
H1628       H  0.09128422  0.89716790  0.19425340     0.10800
H1629       H  0.07207599  0.91699070  0.14689589     0.16200
H1630       H  0.12488378  0.90923812  0.06726209     0.12100
H1631       H  0.23591334  0.85144026  0.14599577     0.15000
H1632       H  0.18392132  0.85793784  0.22611209     0.14700
C1633       C  0.95217374  0.22196403  0.87889203    -0.18100
C1634       C  0.96709017  0.19867078  0.89292703    -0.20300
C1635       C  0.95152453  0.17832541  0.91068185     0.20300
C1636       C  0.92054709  0.18126185  0.91410566    -0.03200
C1637       C  0.90537221  0.20449561  0.89943454    -0.06300
C1638       C  0.92140306  0.22508960  0.88208844     0.20600
C1639       C  0.87432483  0.20742618  0.90251258     0.18800
C1640       C  0.85882852  0.18701203  0.92034277    -0.17800
C1641       C  0.87396292  0.16427363  0.93532839    -0.20000
C1642       C  0.90484074  0.16127718  0.93249039     0.20300
C1643       C  0.92037873  0.13889779  0.94785753    -0.33000
C1644       C  0.95124133  0.13578077  0.94427153     0.01000
C1645       C  0.96652460  0.15536143  0.92536748    -0.24300
C1646       C  0.90653970  0.24884972  0.86870736    -0.28900
C1647       C  0.87573487  0.25228417  0.87193007     0.06600
C1648       C  0.85955800  0.23112550  0.88830908    -0.27600
H1649       H  0.96474852  0.23763886  0.86561379     0.11400
H1650       H  0.99087439  0.19676876  0.89016857     0.12500
H1651       H  0.83503775  0.18887671  0.92303742     0.11600
H1652       H  0.86150380  0.14906962  0.94923505     0.10800
H1653       H  0.90850126  0.12376613  0.96236605     0.16200
H1654       H  0.99033645  0.15325887  0.92280755     0.12100
H1655       H  0.91907170  0.26500516  0.85592632     0.15000
H1656       H  0.83584373  0.23385868  0.89105087     0.14700
C1657       C  0.11068376  0.19869132  0.88017738    -0.18100
C1658       C  0.09365380  0.17568003  0.89211392    -0.20300
C1659       C  0.10720763  0.14926696  0.90155763     0.20300
C1660       C  0.13815422  0.14575681  0.89858816    -0.03200
C1661       C  0.15533951  0.16893505  0.88638844    -0.06300
C1662       C  0.14148876  0.19558291  0.87745180     0.20600
C1663       C  0.18639737  0.16575810  0.88382423     0.18800
C1664       C  0.19988302  0.13927335  0.89328500    -0.17800
C1665       C  0.18281814  0.11628781  0.90548827    -0.20000
C1666       C  0.15198215  0.11938229  0.90836422     0.20300
C1667       C  0.13479471  0.09685210  0.92136837    -0.33000
C1668       C  0.10397366  0.10043882  0.92480138     0.01000
C1669       C  0.09036274  0.12658846  0.91447805    -0.24300
C1670       C  0.15875739  0.21908161  0.86685165    -0.28900
C1671       C  0.18972596  0.21647835  0.86507136     0.06600
C1672       C  0.20343509  0.18951997  0.87281474    -0.27600
H1673       H  0.09980176  0.21907964  0.87341327     0.11400
H1674       H  0.06992045  0.17868491  0.89429725     0.12500
H1675       H  0.22367643  0.13648607  0.89160170     0.11600
H1676       H  0.19378064  0.09618861  0.91293483     0.10800
H1677       H  0.14552784  0.07682785  0.92936206     0.16200
H1678       H  0.06666924  0.12966625  0.91708663     0.12100
H1679       H  0.14814268  0.23985552  0.86077300     0.15000
H1680       H  0.22736861  0.18763213  0.87179407     0.14700
C1681       C  0.87302824  0.95161419  0.21810716    -0.18100
C1682       C  0.88623296  0.96641529  0.19429218    -0.20300
C1683       C  0.90351631  0.95064120  0.17370131     0.20300
C1684       C  0.90688081  0.91952974  0.17652588    -0.03200
C1685       C  0.89302391  0.90449464  0.20022880    -0.06300
C1686       C  0.87659889  0.92079708  0.22142274     0.20600
C1687       C  0.89633188  0.87336721  0.20324276     0.18800
C1688       C  0.91317397  0.85756641  0.18222122    -0.17800
C1689       C  0.92745695  0.87260737  0.15901560    -0.20000
C1690       C  0.92478578  0.90362153  0.15621980     0.20300
C1691       C  0.94021301  0.91918196  0.13400429    -0.33000
C1692       C  0.93711774  0.95020380  0.13147797     0.01000
C1693       C  0.91820483  0.96563707  0.15086861    -0.24300
C1694       C  0.86473311  0.90617223  0.24606262    -0.28900
C1695       C  0.86853125  0.87539574  0.24962601     0.06600
C1696       C  0.88354954  0.85885805  0.22776371    -0.27600
H1697       H  0.86032878  0.96433937  0.23416441     0.11400
H1698       H  0.88347875  0.99029843  0.19235057     0.12500
H1699       H  0.91587266  0.83367906  0.18413065     0.11600
H1700       H  0.94089942  0.86002541  0.14347025     0.10800
H1701       H  0.95466766  0.90729443  0.11880809     0.16200
H1702       H  0.91599996  0.98961175  0.14900343     0.12100
H1703       H  0.85277064  0.91882419  0.26277407     0.15000
H1704       H  0.88647803  0.83507666  0.23060435     0.14700
C1705       C  0.86620494  0.10579552  0.19720445    -0.18100
C1706       C  0.87806040  0.08947144  0.17354017    -0.20300
C1707       C  0.88892122  0.10409088  0.14823399     0.20300
C1708       C  0.88681284  0.13538068  0.14624107    -0.03200
C1709       C  0.87459413  0.15185324  0.17002491    -0.06300
C1710       C  0.86489165  0.13697548  0.19586050     0.20600
C1711       C  0.87325868  0.18325032  0.16847365     0.18800
C1712       C  0.88350506  0.19777100  0.14284647    -0.17800
C1713       C  0.89578866  0.18144109  0.11933868    -0.20000
C1714       C  0.89790506  0.15029647  0.12099601     0.20300
C1715       C  0.91180236  0.13391611  0.09833112    -0.33000
C1716       C  0.91494475  0.10279910  0.10065611     0.01000
C1717       C  0.90278356  0.08803103  0.12539795    -0.24300
C1718       C  0.85539942  0.15359765  0.22043862    -0.28900
C1719       C  0.85524515  0.18486382  0.21950242     0.06600
C1720       C  0.86309214  0.19958313  0.19313394    -0.27600
H1721       H  0.85868317  0.09407122  0.21684790     0.11400
H1722       H  0.87940518  0.06545059  0.17534596     0.12500
H1723       H  0.88267833  0.22182804  0.14127679     0.11600
H1724       H  0.90414534  0.19323288  0.10008037     0.10800
H1725       H  0.92102714  0.14555450  0.07936651     0.16200
H1726       H  0.90494930  0.06407955  0.12742338     0.12100
H1727       H  0.84921511  0.14226955  0.24079892     0.15000
H1728       H  0.86323711  0.22371859  0.19254275     0.14700
loop_ 
_geom_bond_atom_site_label_1 
_geom_bond_atom_site_label_2 
_geom_bond_distance 
_geom_bond_site_symmetry_2 
_ccdc_geom_bond_type 
C1            N2   1.358       .  A
C1            N6   1.360       .  A
C1          C171   1.466       .  S
N2            C3   1.358       .  A
C3            N4   1.355       .  A
C3          C305   1.461       .  S
N4            C5   1.355       .  A
C5            N6   1.359       .  A
C5          C567   1.467       .  S
C7            N8   1.361       .  A
C7           N12   1.360       .  A
C7          C167   1.473       .  S
N8            C9   1.357       .  A
C9           N10   1.359       .  A
C9          C107   1.475       .  S
N10          C11   1.360       .  A
C11          N12   1.362       .  A
C11         C557   1.472       .  S
C13          N14   1.364       .  A
C13          N18   1.356       .  A
C13         C357   1.476       .  S
N14          C15   1.363       .  A
C15          N16   1.360       .  A
C15         C491   1.478       .  S
N16          C17   1.358       .  A
C17          N18   1.358       .  A
C17         C237   1.468       .  S
C19          N20   1.359       .  A
C19          N24   1.360       .  A
C19         C429   1.469       .  S
N20          C21   1.360       .  A
C21          N22   1.359       .  A
C21         C231   1.474       .  S
N22          C23   1.361       .  A
C23          N24   1.357       .  A
C23         C365   1.474       .  S
C25          N26   1.360       .  A
C25          N30   1.359       .  A
C25         C159   1.467       .  S
N26          C27   1.356       .  A
C27          N28   1.360       .  A
C27         C297   1.471       .  S
N28          C29   1.359       .  A
C29          N30   1.360       .  A
C29         C101   1.472       .  S
C31          N32   1.360       .  A
C31          N36   1.360       .  A
C31         C423   1.471       .  S
N32          C33   1.360       .  A
C33          N34   1.360       .  A
C33         C369   1.479       .  S
N34          C35   1.363       .  A
C35          N36   1.358       .  A
C35         C501   1.473       .  S
C37          N38   1.359       .  A
C37          N42   1.359       .  A
C37         C435   1.469       .  S
N38          C39   1.358       .  A
C39          N40   1.356       .  A
C39         C225   1.462       .  S
N40          C41   1.355       .  A
C41          N42   1.359       .  A
C41         C497   1.465       .  S
O43         Mg45   2.131       .  S
O43         Mg51   2.145       .  S
O43          C78   1.237   1_554  S
C44          O57   1.237       .  S
C44          O81   1.271       .  A
C44          H83   1.081       .  S
Mg45         O74   2.142       .  S
Mg45         O89   2.303       .  S
Mg45         O85   2.239   1_545  S
Mg45         O56   2.300   1_545  S
O46         Mg88   2.155       .  S
O46         Mg71   2.148       .  S
O46          C67   1.238   1_545  S
O47          C78   1.271       .  A
O47         Mg71   2.299   1_655  S
C48        C1620   1.489       .  S
C48          O50   1.274       .  A
C48          O62   1.277       .  A
O49          C77   1.271       .  A
O49         Mg51   2.303   1_455  S
O50         Mg82   2.285       .  S
Mg51         O57   2.130   1_655  S
Mg51         O65   2.261       .  S
Mg51         O53   2.322   1_554  S
C52        C1596   1.483       .  S
C52          O90   1.272       .  A
C52          O58   1.276       .  A
O53          C60   1.276       .  A
H54          C67   1.081       .  S
C55          O69   1.236       .  S
C55          O70   1.270       .  A
C55          H80   1.081       .  S
O56          C79   1.272       .  A
O57         Mg71   2.137   1_554  S
O58         Mg88   2.316   1_565  S
C59        C1668   1.478       .  S
C59          O72   1.271       .  A
C59          O64   1.274       .  A
C60        C1644   1.480       .  S
C60          O87   1.274       .  A
Mg61         O68   2.129       .  S
Mg61         O69   2.138   1_565  S
Mg61         O62   2.307       .  S
Mg61         O63   2.304   1_554  S
Mg61         O90   2.257   1_554  S
O63          C67   1.272       .  A
O64         Mg71   2.287       .  S
O65          C84   1.272       .  A
O66          C86   1.275       .  A
O66         Mg82   2.308   1_655  S
O68         Mg82   2.148       .  S
O68          C79   1.238   1_455  S
O69         Mg88   2.128   1_554  S
O70         Mg82   2.295   1_545  S
Mg71         O87   2.273   1_455  S
O72         Mg88   2.253       .  S
H73          C78   1.081       .  S
O74         Mg82   2.148   1_645  S
O74          C77   1.237   1_655  S
H75          C77   1.081       .  S
H76          C79   1.081       .  S
O81         Mg88   2.300   1_554  S
C84        C1716   1.483       .  S
C84          O89   1.275       .  A
O85          C86   1.270       .  A
C86        C1692   1.468       .  S
C91          N92   1.355       .  A
C91          N96   1.361       .  A
C91        C1671   1.471       .  S
N92          C93   1.350       .  A
C93          N94   1.355       .  A
C93        C1572   1.465       .  S
N94          C95   1.362       .  A
C95          N96   1.362       .  A
C95         C575   1.467       .  S
C97          N98   1.355       .  A
C97         N102   1.360       .  A
C97        C1719   1.472       .  S
N98          C99   1.352       .  A
C99         N100   1.358       .  A
C99        C1548   1.465       .  S
N100        C101   1.362       .  A
C101        N102   1.363       .  A
C103        N104   1.356       .  A
C103        N108   1.363       .  A
C103       C1623   1.484       .  S
N104        C105   1.353       .  A
C105        N106   1.358       .  A
C105       C1527   1.477       .  S
N106        C107   1.362       .  A
C107        N108   1.367       .  A
O109       Mg111   2.127       .  S
O109       Mg117   2.147       .  S
O109        C144   1.238       .  S
C110        O123   1.236       .  S
C110        O147   1.271       .  A
C110        H149   1.081       .  S
Mg111       O140   2.139   1_455  S
Mg111       O155   2.302   1_455  S
Mg111       O151   2.248   1_455  S
Mg111       O122   2.302       .  S
O112       Mg154   2.145       .  S
O112       Mg137   2.136       .  S
O112        C133   1.237       .  S
O113        C144   1.271       .  A
O113       Mg137   2.298       .  S
C114       C1407   1.483       .  S
C114        O116   1.271       .  A
C114        O128   1.275   1_655  A
O115        C143   1.270   1_455  A
O115       Mg117   2.295       .  S
O116       Mg148   2.253       .  S
Mg117       O123   2.145       .  S
Mg117       O131   2.282       .  S
Mg117       O119   2.306       .  S
C118       C1383   1.478       .  S
C118        O156   1.271       .  A
C118        O124   1.276       .  A
O119        C126   1.275       .  A
H120        C133   1.081       .  S
C121        O135   1.236       .  S
C121        O136   1.270   1_455  A
C121        H146   1.081       .  S
O122        C145   1.272       .  A
O123       Mg137   2.142       .  S
O124       Mg154   2.313       .  S
C125       C1452   1.485       .  S
C125        O138   1.273       .  A
C125        O130   1.277       .  A
C126       C1428   1.475       .  S
C126        O153   1.272       .  A
Mg127       O134   2.134       .  S
Mg127       O135   2.142       .  S
Mg127       O128   2.307       .  S
Mg127       O129   2.302       .  S
Mg127       O156   2.244       .  S
O129        C133   1.271       .  A
O130       Mg137   2.316       .  S
O131        C150   1.274   1_455  A
O132        C152   1.274       .  A
O132       Mg148   2.299       .  S
O134       Mg148   2.145   1_455  S
O134        C145   1.238       .  S
O135       Mg154   2.135       .  S
O136       Mg148   2.299       .  S
Mg137       O153   2.245       .  S
O138       Mg154   2.265       .  S
H139        C144   1.081       .  S
O140       Mg148   2.126       .  S
O140        C143   1.236       .  S
H141        C143   1.081       .  S
H142        C145   1.081       .  S
O147       Mg154   2.302       .  S
C150       C1500   1.487       .  S
C150        O155   1.276       .  A
O151        C152   1.271       .  A
C152       C1476   1.478       .  S
C157        N158   1.363       .  A
C157        N162   1.355       .  A
C157       C1503   1.481       .  S
N158        C159   1.365       .  A
C159        N160   1.359       .  A
N160        C161   1.353       .  A
C161        N162   1.352       .  A
C161       C1359   1.464       .  S
C163        N164   1.353       .  A
C163        N168   1.365       .  A
C163       C1455   1.483       .  S
N164        C165   1.349       .  A
C165        N166   1.353       .  A
C165       C1332   1.466       .  S
N166        C167   1.361       .  A
C167        N168   1.369       .  A
C169        N170   1.361       .  A
C169        N174   1.355       .  A
C169       C1404   1.476       .  S
N170        C171   1.364       .  A
C171        N172   1.359       .  A
N172        C173   1.354       .  A
C173        N174   1.352       .  A
C173       C1308   1.459       .  S
O175       Mg177   2.125       .  S
O175       Mg183   2.148       .  S
O175        C210   1.236       .  S
C176        O189   1.236       .  S
C176        O213   1.269   1_545  A
C176        H215   1.081       .  S
Mg177       O206   2.139       .  S
Mg177       O221   2.317       .  S
Mg177       O217   2.231       .  S
Mg177       O188   2.305       .  S
O178       Mg220   2.153   1_545  S
O178       Mg203   2.135       .  S
O178        C199   1.238       .  S
O179        C210   1.269   1_655  A
O179       Mg203   2.291       .  S
C180       C1239   1.483       .  S
C180        O182   1.273   1_565  A
C180        O194   1.276       .  A
O181        C209   1.270       .  A
O181       Mg183   2.299       .  S
O182       Mg214   2.273       .  S
Mg183       O189   2.132       .  S
Mg183       O197   2.270       .  S
Mg183       O185   2.306   1_455  S
C184       C1311   1.480       .  S
C184        O222   1.273       .  A
C184        O190   1.273       .  A
O185        C192   1.276       .  A
H186        C199   1.081       .  S
C187        O201   1.237       .  S
C187        O202   1.271       .  A
C187        H212   1.081       .  S
O188        C211   1.272       .  A
O189       Mg203   2.154   1_455  S
O190       Mg220   2.282       .  S
C191       C1212   1.486       .  S
C191        O204   1.273       .  A
C191        O196   1.275   1_565  A
C192       C1551   1.483       .  S
C192        O219   1.273       .  A
Mg193       O200   2.134       .  S
Mg193       O201   2.150   1_545  S
Mg193       O194   2.300   1_545  S
Mg193       O195   2.299   1_455  S
Mg193       O222   2.271   1_445  S
O195        C199   1.271       .  A
O196       Mg203   2.297       .  S
O197        C216   1.274       .  A
O198        C218   1.275       .  A
O198       Mg214   2.311       .  S
O200       Mg214   2.145       .  S
O200        C211   1.238       .  S
O201       Mg220   2.138   1_455  S
O202       Mg214   2.302   1_565  S
Mg203       O219   2.260       .  S
O204       Mg220   2.276       .  S
H205        C210   1.081       .  S
O206       Mg214   2.144       .  S
O206        C209   1.236       .  S
H207        C209   1.081       .  S
H208        C211   1.081       .  S
O213       Mg220   2.291   1_455  S
C216       C1287   1.488       .  S
C216        O221   1.277       .  A
O217        C218   1.270       .  A
C218       C1260   1.466       .  S
C223        N224   1.359       .  A
C223        N228   1.355       .  A
C223       C1236   1.478       .  S
N224        C225   1.362       .  A
C225        N226   1.361       .  A
N226        C227   1.354       .  A
C227        N228   1.351       .  A
C227       C1380   1.465       .  S
C229        N230   1.364       .  A
C229        N234   1.355       .  A
C229       C1284   1.482       .  S
N230        C231   1.365       .  A
C231        N232   1.361       .  A
N232        C233   1.356       .  A
C233        N234   1.353       .  A
C233       C1191   1.468       .  S
C235        N236   1.363       .  A
C235        N240   1.355       .  A
C235       C1215   1.479       .  S
N236        C237   1.365       .  A
C237        N238   1.360       .  A
N238        C239   1.353       .  A
C239        N240   1.352       .  A
C239       C1695   1.469       .  S
O241       Mg243   2.129       .  S
O241       Mg249   2.152   1_554  S
O241        C276   1.236       .  S
C242        O255   1.237       .  S
C242        O279   1.270   1_556  A
C242        H281   1.081       .  S
Mg243       O272   2.146       .  S
Mg243       O287   2.289       .  S
Mg243       O283   2.251       .  S
Mg243       O254   2.296       .  S
O244       Mg286   2.148       .  S
O244       Mg269   2.129       .  S
O244        C265   1.238       .  S
O245        C276   1.270       .  A
O245       Mg269   2.296       .  S
C246       C1119   1.485       .  S
C246        O248   1.273       .  A
C246        O260   1.277       .  A
O247        C275   1.270   1_556  A
O247       Mg249   2.297       .  S
O248       Mg280   2.277       .  S
Mg249       O255   2.136       .  S
Mg249       O263   2.267       .  S
Mg249       O251   2.297       .  S
C250       C1092   1.474       .  S
C250        O288   1.272       .  A
C250        O256   1.275       .  A
O251        C258   1.274       .  A
H252        C265   1.081       .  S
C253        O267   1.237       .  S
C253        O268   1.271       .  A
C253        H278   1.081       .  S
O254        C277   1.270       .  A
O255       Mg269   2.150   1_556  S
O256       Mg286   2.308       .  S
C257       C1164   1.485       .  S
C257        O270   1.273   1_556  A
C257        O262   1.274       .  A
C258       C1140   1.476       .  S
C258        O285   1.271       .  A
Mg259       O266   2.132       .  S
Mg259       O267   2.138       .  S
Mg259       O260   2.309       .  S
Mg259       O261   2.303       .  S
Mg259       O288   2.254       .  S
O261        C265   1.272       .  A
O262       Mg269   2.287   1_556  S
O263        C282   1.272       .  A
O264        C284   1.276       .  A
O264       Mg280   2.311       .  S
O266       Mg280   2.147       .  S
O266        C277   1.237       .  S
O267       Mg286   2.142       .  S
O268       Mg280   2.303       .  S
Mg269       O285   2.245   1_554  S
O270       Mg286   2.280       .  S
H271        C276   1.081       .  S
O272       Mg280   2.138       .  S
O272        C275   1.236       .  S
H273        C275   1.081       .  S
H274        C277   1.081       .  S
O279       Mg286   2.299       .  S
C282       C1071   1.481       .  S
C282        O287   1.274   1_556  A
O283        C284   1.272       .  A
C284       C1047   1.478       .  S
C289        N290   1.358       .  A
C289        N294   1.357       .  A
C289       C1167   1.478       .  S
N290        C291   1.361       .  A
C291        N292   1.359       .  A
C291        C573   1.462       .  S
N292        C293   1.355       .  A
C293        N294   1.356       .  A
C293       C1023   1.470       .  S
C295        N296   1.366       .  A
C295        N300   1.353       .  A
C295       C1116   1.487       .  S
N296        C297   1.370       .  A
C297        N298   1.360       .  A
N298        C299   1.353       .  A
C299        N300   1.349       .  A
C299        C999   1.468       .  S
C301        N302   1.356       .  A
C301        N306   1.357       .  A
C301       C1068   1.471       .  S
N302        C303   1.353       .  A
C303        N304   1.356       .  A
C303        C972   1.461       .  S
N304        C305   1.359       .  A
C305        N306   1.359       .  A
O307       Mg309   2.143       .  S
O307       Mg315   2.153   1_455  S
O307        C342   1.238       .  S
C308        O321   1.236       .  S
C308        O345   1.270   1_655  A
C308        H347   1.081       .  S
Mg309       O338   2.146       .  S
Mg309       O353   2.312       .  S
Mg309       O349   2.266       .  S
Mg309       O320   2.302       .  S
O310       Mg352   2.148       .  S
O310       Mg335   2.139       .  S
O310        C331   1.238       .  S
O311        C342   1.273       .  A
O311       Mg335   2.306   1_556  S
C312        C951   1.490       .  S
C312        O314   1.274       .  A
C312        O326   1.277       .  A
O313        C341   1.270   1_655  A
O313       Mg315   2.297   1_554  S
O314       Mg346   2.273       .  S
Mg315       O321   2.142   1_556  S
Mg315       O329   2.284       .  S
Mg315       O317   2.298       .  S
C316       C1335   1.474       .  S
C316        O354   1.271       .  A
C316        O322   1.274       .  A
O317        C324   1.275       .  A
H318        C331   1.081       .  S
C319        O333   1.236       .  S
C319        O334   1.270       .  A
C319        H344   1.081       .  S
O320        C343   1.272       .  A
O321       Mg335   2.148   1_655  S
O322       Mg352   2.302       .  S
C323        C927   1.491       .  S
C323        O336   1.273   1_655  A
C323        O328   1.279       .  A
C324        C975   1.480       .  S
C324        O351   1.273       .  A
Mg325       O332   2.137       .  S
Mg325       O333   2.143       .  S
Mg325       O326   2.324       .  S
Mg325       O327   2.305       .  S
Mg325       O354   2.245       .  S
O327        C331   1.272       .  A
O328       Mg335   2.329   1_655  S
O329        C348   1.274       .  A
O330        C350   1.276       .  A
O330       Mg346   2.309   1_556  S
O332       Mg346   2.148       .  S
O332        C343   1.238   1_554  S
O333       Mg352   2.147       .  S
O334       Mg346   2.299       .  S
Mg335       O351   2.259   1_454  S
O336       Mg352   2.272       .  S
H337        C342   1.081       .  S
O338       Mg346   2.140   1_556  S
O338        C341   1.236   1_556  S
H339        C341   1.081       .  S
H340        C343   1.081       .  S
O345       Mg352   2.297       .  S
C348        C900   1.490       .  S
C348        O353   1.277   1_655  A
O349        C350   1.273       .  A
C350       C1575   1.483       .  S
C355        N356   1.365       .  A
C355        N360   1.355       .  A
C355        C924   1.487       .  S
N356        C357   1.369       .  A
C357        N358   1.360       .  A
N358        C359   1.356       .  A
C359        N360   1.352       .  A
C359       C1044   1.467       .  S
C361        N362   1.355       .  A
C361        N366   1.366       .  A
C361        C948   1.484       .  S
N362        C363   1.352       .  A
C363        N364   1.353       .  A
C363       C1431   1.463       .  S
N364        C365   1.359       .  A
C365        N366   1.368       .  A
C367        N368   1.364       .  A
C367        N372   1.354       .  A
C367        C903   1.487       .  S
N368        C369   1.369       .  A
C369        N370   1.366       .  A
N370        C371   1.358       .  A
C371        N372   1.351       .  A
C371       C1647   1.479       .  S
O373       Mg375   2.139   1_565  S
O373       Mg381   2.150   1_556  S
O373        C408   1.236   1_565  S
C374        O387   1.238       .  S
C374        O411   1.273       .  A
C374        H413   1.081       .  S
Mg375       O404   2.142   1_556  S
Mg375       O419   2.305   1_545  S
Mg375       O415   2.264       .  S
Mg375       O386   2.294       .  S
O376       Mg418   2.146       .  S
O376       Mg401   2.120   1_545  S
O376        C397   1.236       .  S
O377        C408   1.271   1_554  A
O377       Mg401   2.301   1_545  S
C378        C996   1.477       .  S
C378        O380   1.272       .  A
C378        O392   1.272       .  A
O379        C407   1.271       .  A
O379       Mg381   2.299       .  S
O380       Mg412   2.265       .  S
Mg381       O387   2.160       .  S
Mg381       O395   2.272   1_554  S
Mg381       O383   2.322   1_554  S
C382        C876   1.482       .  S
C382        O420   1.271       .  A
C382        O388   1.278       .  A
O383        C390   1.276       .  A
H384        C397   1.081       .  S
C385        O399   1.239       .  S
C385        O400   1.274       .  A
C385        H410   1.081       .  S
O386        C409   1.269   1_556  A
O387       Mg401   2.145       .  S
O388       Mg418   2.337       .  S
C389       C1524   1.485       .  S
C389        O402   1.274       .  A
C389        O394   1.275       .  A
C390        C804   1.475       .  S
C390        O417   1.270   1_556  A
Mg391       O398   2.128       .  S
Mg391       O399   2.145       .  S
Mg391       O392   2.273       .  S
Mg391       O393   2.293       .  S
Mg391       O420   2.245       .  S
O393        C397   1.269       .  A
O394       Mg401   2.298       .  S
O395        C414   1.273       .  A
O396        C416   1.278   1_554  A
O396       Mg412   2.335       .  S
O398       Mg412   2.145       .  S
O398        C409   1.235       .  S
O399       Mg418   2.147       .  S
O400       Mg412   2.306       .  S
Mg401       O417   2.239       .  S
O402       Mg418   2.281   1_565  S
H403        C408   1.081       .  S
O404       Mg412   2.137       .  S
O404        C407   1.237   1_545  S
H405        C407   1.081       .  S
H406        C409   1.081       .  S
O411       Mg418   2.310   1_565  S
C414        C831   1.486       .  S
C414        O419   1.277       .  A
O415        C416   1.275       .  A
C416        C852   1.483       .  S
C421        N422   1.361       .  A
C421        N426   1.354       .  A
C421        C855   1.477       .  S
N422        C423   1.365       .  A
C423        N424   1.363       .  A
N424        C425   1.358       .  A
C425        N426   1.352       .  A
C425        C783   1.477       .  S
C427        N428   1.364       .  A
C427        N432   1.355       .  A
C427        C879   1.481       .  S
N428        C429   1.367       .  A
C429        N430   1.360       .  A
N430        C431   1.353       .  A
C431        N432   1.352       .  A
C431       C1095   1.469       .  S
C433        N434   1.358       .  A
C433        N438   1.356       .  A
C433        C807   1.472       .  S
N434        C435   1.361       .  A
C435        N436   1.362       .  A
N436        C437   1.358       .  A
C437        N438   1.354       .  A
C437       C1599   1.469       .  S
O439       Mg441   2.144       .  S
O439       Mg447   2.148       .  S
O439        C474   1.237       .  S
C440        O453   1.236       .  S
C440        O477   1.269       .  A
C440        H479   1.081       .  S
Mg441       O470   2.141       .  S
Mg441       O485   2.305       .  S
Mg441       O481   2.264       .  S
Mg441       O452   2.300       .  S
O442       Mg484   2.157       .  S
O442       Mg467   2.131       .  S
O442        C463   1.238       .  S
O443        C474   1.271       .  A
O443       Mg467   2.303       .  S
C444        C756   1.490       .  S
C444        O446   1.275       .  A
C444        O458   1.278       .  A
O445        C473   1.272       .  A
O445       Mg447   2.305       .  S
O446       Mg478   2.288       .  S
Mg447       O453   2.133       .  S
Mg447       O461   2.268       .  S
Mg447       O449   2.320       .  S
C448       C1356   1.473       .  S
C448        O486   1.273       .  A
C448        O454   1.273       .  A
O449        C456   1.278       .  A
H450        C463   1.081       .  S
C451        O465   1.237       .  S
C451        O466   1.270       .  A
C451        H476   1.081       .  S
O452        C475   1.272       .  A
O453       Mg467   2.144       .  S
O454       Mg484   2.271       .  S
C455        C735   1.489       .  S
C455        O468   1.274       .  A
C455        O460   1.276       .  A
C456        C711   1.479       .  S
C456        O483   1.272       .  A
Mg457       O464   2.133       .  S
Mg457       O465   2.159       .  S
Mg457       O458   2.310       .  S
Mg457       O459   2.296       .  S
Mg457       O486   2.271       .  S
O459        C463   1.272       .  A
O460       Mg467   2.305       .  S
O461        C480   1.273       .  A
O462        C482   1.277       .  A
O462       Mg478   2.318       .  S
O464       Mg478   2.148       .  S
O464        C475   1.238       .  S
O465       Mg484   2.137       .  S
O466       Mg478   2.295       .  S
Mg467       O483   2.253       .  S
O468       Mg484   2.282       .  S
H469        C474   1.081       .  S
O470       Mg478   2.145       .  S
O470        C473   1.238       .  S
H471        C473   1.081       .  S
H472        C475   1.081       .  S
O477       Mg484   2.291       .  S
C480        C687   1.484       .  S
C480        O485   1.276       .  A
O481        C482   1.273       .  A
C482       C1020   1.478       .  S
C487        N488   1.357       .  A
C487        N492   1.363       .  A
C487        C732   1.479       .  S
N488        C489   1.353       .  A
C489        N490   1.358       .  A
C489        C660   1.472       .  S
N490        C491   1.364       .  A
C491        N492   1.365       .  A
C493        N494   1.354       .  A
C493        N498   1.361       .  A
C493        C684   1.478       .  S
N494        C495   1.351       .  A
C495        N496   1.353       .  A
C495       C1143   1.458       .  S
N496        C497   1.359       .  A
C497        N498   1.364       .  A
C499        N500   1.366       .  A
C499        N504   1.358       .  A
C499        C759   1.484       .  S
N500        C501   1.367       .  A
C501        N502   1.357       .  A
N502        C503   1.352       .  A
C503        N504   1.353       .  A
C503       C1479   1.462       .  S
O505       Mg507   2.148       .  S
O505       Mg513   2.156       .  S
O505        C540   1.239       .  S
C506        O519   1.237       .  S
C506        O543   1.271       .  A
C506        H545   1.081       .  S
Mg507       O536   2.145   1_545  S
Mg507       O551   2.312   1_545  S
Mg507       O547   2.284   1_545  S
Mg507       O518   2.302       .  S
O508       Mg550   2.147       .  S
O508       Mg533   2.127       .  S
O508        C529   1.237       .  S
O509        C540   1.273       .  A
O509       Mg533   2.304       .  S
C510        C591   1.480       .  S
C510        O512   1.272       .  A
C510        O524   1.273   1_565  A
O511        C539   1.270   1_545  A
O511       Mg513   2.295       .  S
O512       Mg544   2.268       .  S
Mg513       O519   2.145       .  S
Mg513       O527   2.277       .  S
Mg513       O515   2.315       .  S
C514        C780   1.474       .  S
C514        O552   1.271       .  A
C514        O520   1.276       .  A
O515        C522   1.277       .  A
H516        C529   1.081       .  S
C517        O531   1.238       .  S
C517        O532   1.272       .  A
C517        H542   1.081       .  S
O518        C541   1.271       .  A
O519       Mg533   2.141       .  S
O520       Mg550   2.317       .  S
C521        C612   1.485       .  S
C521        O534   1.274       .  A
C521        O526   1.275       .  A
C522       C1188   1.478       .  S
C522        O549   1.270       .  A
Mg523       O530   2.144       .  S
Mg523       O531   2.144       .  S
Mg523       O524   2.284       .  S
Mg523       O525   2.298       .  S
Mg523       O552   2.257       .  S
O525        C529   1.271       .  A
O526       Mg533   2.298       .  S
O527        C546   1.274   1_545  A
O528        C548   1.277       .  A
O528       Mg544   2.314       .  S
O530       Mg544   2.152   1_545  S
O530        C541   1.237       .  S
O531       Mg550   2.145       .  S
O532       Mg544   2.304   1_545  S
Mg533       O549   2.247       .  S
O534       Mg550   2.289       .  S
H535        C540   1.081       .  S
O536       Mg544   2.132       .  S
O536        C539   1.236       .  S
H537        C539   1.081       .  S
H538        C541   1.081       .  S
O543       Mg550   2.303       .  S
C546        C636   1.487       .  S
C546        O551   1.278       .  A
O547        C548   1.276       .  A
C548        C663   1.489       .  S
C553        N554   1.356       .  A
C553        N558   1.361       .  A
C553        C639   1.478       .  S
N554        C555   1.355       .  A
C555        N556   1.358       .  A
C555        C708   1.472       .  S
N556        C557   1.361       .  A
C557        N558   1.364       .  A
C559        N560   1.351       .  A
C559        N564   1.362       .  A
C559        C615   1.487       .  S
N560        C561   1.350       .  A
C561        N562   1.355       .  A
C561       C1263   1.471       .  S
N562        C563   1.363       .  A
C563        N564   1.369       .  A
C563        C571   1.469       .  S
C565        N566   1.359       .  A
C565        N570   1.353       .  A
C565        C588   1.476       .  S
N566        C567   1.362       .  A
C567        N568   1.364       .  A
N568        C569   1.357       .  A
C569        N570   1.351       .  A
C569        C828   1.472       .  S
C571        N572   1.358       .  A
C571        N576   1.362       .  A
N572        C573   1.358       .  A
C573        N574   1.355       .  A
N574        C575   1.355       .  A
C575        N576   1.360       .  A
C577        H593   1.084       .  S
C577        C578   1.395       .  A
C577        C582   1.402       .  A
C578        H594   1.084       .  S
C578        C579   1.402       .  A
C579        C589   1.395       .  A
C579        C580   1.410       .  A
C580        C586   1.413       .  A
C580        C581   1.410       .  A
C581        C583   1.411       .  A
C581        C582   1.411       .  A
C582        C590   1.398       .  A
C583        C592   1.405       .  A
C583        C584   1.404       .  A
C584        H595   1.084       .  S
C584        C585   1.401       .  A
C585        H596   1.083       .  S
C585        C586   1.404       .  A
C586        C587   1.406       .  A
C587        H597   1.084       .  S
C587        C588   1.406       .  A
C588        C589   1.406       .  A
C589        H598   1.085       .  S
C590        H599   1.084   1_565  S
C590        C591   1.406       .  A
C591        C592   1.408       .  A
C592        H600   1.084       .  S
C601        H617   1.083       .  S
C601        C602   1.404       .  A
C601        C606   1.405       .  A
C602        H618   1.083       .  S
C602        C603   1.406       .  A
C603        C613   1.410       .  A
C603        C604   1.411       .  A
C604        C610   1.411       .  A
C604        C605   1.413       .  A
C605        C607   1.408       .  A
C605        C606   1.414       .  A
C606        C614   1.412       .  A
C607        C616   1.395       .  A
C607        C608   1.403       .  A
C608        H619   1.084       .  S
C608        C609   1.395       .  A
C609        H620   1.084       .  S
C609        C610   1.402       .  A
C610        C611   1.398       .  A
C611        H621   1.084       .  S
C611        C612   1.407       .  A
C612        C613   1.410       .  A
C613        H622   1.084       .  S
C614        H623   1.084       .  S
C614        C615   1.408       .  A
C615        C616   1.410       .  A
C616        H624   1.084       .  S
C625        H641   1.084       .  S
C625        C626   1.398       .  A
C625        C630   1.403       .  A
C626        H642   1.084       .  S
C626        C627   1.403       .  A
C627        C637   1.403       .  A
C627        C628   1.412       .  A
C628        C634   1.411       .  A
C628        C629   1.414       .  A
C629        C631   1.413       .  A
C629        C630   1.411       .  A
C630        C638   1.401       .  A
C631        C640   1.408       .  A
C631        C632   1.404       .  A
C632        H643   1.083       .  S
C632        C633   1.401       .  A
C633        H644   1.083       .  S
C633        C634   1.405       .  A
C634        C635   1.406       .  A
C635        H645   1.084       .  S
C635        C636   1.410       .  A
C636        C637   1.408       .  A
C637        H646   1.084       .  S
C638        H647   1.085       .  S
C638        C639   1.405       .  A
C639        C640   1.406       .  A
C640        H648   1.084       .  S
C649        H665   1.084       .  S
C649        C650   1.401       .  A
C649        C654   1.405       .  A
C650        H666   1.083       .  S
C650        C651   1.404       .  A
C651        C661   1.407       .  A
C651        C652   1.413       .  A
C652        C658   1.412       .  A
C652        C653   1.414       .  A
C653        C655   1.412       .  A
C653        C654   1.411       .  A
C654        C662   1.406       .  A
C655        C664   1.405       .  A
C655        C656   1.404       .  A
C656        H667   1.083       .  S
C656        C657   1.399       .  A
C657        H668   1.084       .  S
C657        C658   1.403       .  A
C658        C659   1.404       .  A
C659        H669   1.085       .  S
C659        C660   1.404       .  A
C660        C661   1.404       .  A
C661        H670   1.084       .  S
C662        H671   1.084       .  S
C662        C663   1.410       .  A
C663        C664   1.408       .  A
C664        H672   1.084       .  S
C673        H689   1.083       .  S
C673        C674   1.401       .  A
C673        C678   1.405       .  A
C674        H690   1.083       .  S
C674        C675   1.404       .  A
C675        C685   1.407       .  A
C675        C676   1.413       .  A
C676        C682   1.410       .  A
C676        C677   1.412       .  A
C677        C679   1.412       .  A
C677        C678   1.411       .  A
C678        C686   1.405       .  A
C679        C688   1.401       .  A
C679        C680   1.403       .  A
C680        H691   1.084       .  S
C680        C681   1.397       .  A
C681        H692   1.084       .  S
C681        C682   1.403       .  A
C682        C683   1.398       .  A
C683        H693   1.085       .  S
C683        C684   1.407       .  A
C684        C685   1.406       .  A
C685        H694   1.084       .  S
C686        H695   1.084       .  S
C686        C687   1.410       .  A
C687        C688   1.407       .  A
C688        H696   1.084       .  S
C697        H713   1.084       .  S
C697        C698   1.400       .  A
C697        C702   1.404       .  A
C698        H714   1.083       .  S
C698        C699   1.404       .  A
C699        C709   1.405       .  A
C699        C700   1.413       .  A
C700        C706   1.411       .  A
C700        C701   1.412       .  A
C701        C703   1.411       .  A
C701        C702   1.412       .  A
C702        C710   1.404       .  A
C703        C712   1.402       .  A
C703        C704   1.403       .  A
C704        H715   1.083       .  S
C704        C705   1.398       .  A
C705        H716   1.084       .  S
C705        C706   1.403       .  A
C706        C707   1.401       .  A
C707        H717   1.085       .  S
C707        C708   1.404       .  A
C708        C709   1.404       .  A
C709        H718   1.084       .  S
C710        H719   1.084       .  S
C710        C711   1.406       .  A
C711        C712   1.407       .  A
C712        H720   1.084       .  S
C721        H737   1.084       .  S
C721        C722   1.402       .  A
C721        C726   1.405       .  A
C722        H738   1.083       .  S
C722        C723   1.404       .  A
C723        C733   1.408       .  A
C723        C724   1.413       .  A
C724        C730   1.411       .  A
C724        C725   1.414       .  A
C725        C727   1.411       .  A
C725        C726   1.411       .  A
C726        C734   1.408       .  A
C727        C736   1.402       .  A
C727        C728   1.403       .  A
C728        H739   1.084       .  S
C728        C729   1.398       .  A
C729        H740   1.084       .  S
C729        C730   1.403       .  A
C730        C731   1.402       .  A
C731        H741   1.085       .  S
C731        C732   1.406       .  A
C732        C733   1.406       .  A
C733        H742   1.084       .  S
C734        H743   1.084       .  S
C734        C735   1.410       .  A
C735        C736   1.409       .  A
C736        H744   1.084       .  S
C745        H761   1.084       .  S
C745        C746   1.398       .  A
C745        C750   1.403       .  A
C746        H762   1.084       .  S
C746        C747   1.403       .  A
C747        C757   1.402       .  A
C747        C748   1.411       .  A
C748        C754   1.411       .  A
C748        C749   1.415       .  A
C749        C751   1.413       .  A
C749        C750   1.410       .  A
C750        C758   1.401       .  A
C751        C760   1.411       .  A
C751        C752   1.405       .  A
C752        H763   1.083       .  S
C752        C753   1.403       .  A
C753        H764   1.083       .  S
C753        C754   1.405       .  A
C754        C755   1.409       .  A
C755        H765   1.084       .  S
C755        C756   1.411       .  A
C756        C757   1.409       .  A
C757        H766   1.084       .  S
C758        H767   1.085       .  S
C758        C759   1.408       .  A
C759        C760   1.408       .  A
C760        H768   1.084       .  S
C769        H785   1.083       .  S
C769        C770   1.397       .  A
C769        C774   1.403       .  A
C770        H786   1.084       .  S
C770        C771   1.403       .  A
C771        C781   1.400       .  A
C771        C772   1.412       .  A
C772        C778   1.412       .  A
C772        C773   1.412       .  A
C773        C775   1.413       .  A
C773        C774   1.410       .  A
C774        C782   1.399       .  A
C775        C784   1.407       .  A
C775        C776   1.404       .  A
C776        H787   1.084       .  S
C776        C777   1.401       .  A
C777        H788   1.083       .  S
C777        C778   1.404       .  A
C778        C779   1.405       .  A
C779        H789   1.084       .  S
C779        C780   1.406       .  A
C780        C781   1.404       .  A
C781        H790   1.085       .  S
C782        H791   1.085       .  S
C782        C783   1.406       .  A
C783        C784   1.405       .  A
C784        H792   1.084       .  S
C793        H809   1.084       .  S
C793        C794   1.401       .  A
C793        C798   1.404       .  A
C794        H810   1.083       .  S
C794        C795   1.404       .  A
C795        C805   1.406       .  A
C795        C796   1.413       .  A
C796        C802   1.411       .  A
C796        C797   1.411       .  A
C797        C799   1.412       .  A
C797        C798   1.412       .  A
C798        C806   1.405       .  A
C799        C808   1.399       .  A
C799        C800   1.402       .  A
C800        H811   1.084       .  S
C800        C801   1.396       .  A
C801        H812   1.084   1_556  S
C801        C802   1.402       .  A
C802        C803   1.398       .  A
C803        H813   1.085   1_556  S
C803        C804   1.405       .  A
C804        C805   1.406       .  A
C805        H814   1.084       .  S
C806        H815   1.084       .  S
C806        C807   1.405       .  A
C807        C808   1.403       .  A
C808        H816   1.085       .  S
C817        H833   1.084       .  S
C817        C818   1.396       .  A
C817        C822   1.403       .  A
C818        H834   1.084       .  S
C818        C819   1.402       .  A
C819        C829   1.397       .  A
C819        C820   1.410       .  A
C820        C826   1.414       .  A
C820        C821   1.412       .  A
C821        C823   1.410       .  A
C821        C822   1.412       .  A
C822        C830   1.401       .  A
C823        C832   1.406       .  A
C823        C824   1.405       .  A
C824        H835   1.083       .  S
C824        C825   1.401       .  A
C825        H836   1.083       .  S
C825        C826   1.404       .  A
C826        C827   1.408       .  A
C827        H837   1.084       .  S
C827        C828   1.405       .  A
C828        C829   1.404       .  A
C829        H838   1.085       .  S
C830        H839   1.084       .  S
C830        C831   1.407       .  A
C831        C832   1.410       .  A
C832        H840   1.084       .  S
C841        H857   1.084       .  S
C841        C842   1.395       .  A
C841        C846   1.402       .  A
C842        H858   1.084       .  S
C842        C843   1.402       .  A
C843        C853   1.399       .  A
C843        C844   1.412       .  A
C844        C850   1.412       .  A
C844        C845   1.413       .  A
C845        C847   1.413       .  A
C845        C846   1.410       .  A
C846        C854   1.397       .  A
C847        C856   1.411       .  A
C847        C848   1.405       .  A
C848        H859   1.083       .  S
C848        C849   1.404       .  A
C849        H860   1.083       .  S
C849        C850   1.406       .  A
C850        C851   1.410       .  A
C851        H861   1.084       .  S
C851        C852   1.410       .  A
C852        C853   1.405       .  A
C853        H862   1.085       .  S
C854        H863   1.085       .  S
C854        C855   1.404       .  A
C855        C856   1.407       .  A
C856        H864   1.084       .  S
C865        H881   1.084       .  S
C865        C866   1.396       .  A
C865        C870   1.403       .  A
C866        H882   1.084       .  S
C866        C867   1.402       .  A
C867        C877   1.399       .  A
C867        C868   1.411       .  A
C868        C874   1.412       .  A
C868        C869   1.413       .  A
C869        C871   1.413       .  A
C869        C870   1.410       .  A
C870        C878   1.398       .  A
C871        C880   1.411       .  A
C871        C872   1.405       .  A
C872        H883   1.083       .  S
C872        C873   1.403       .  A
C873        H884   1.083       .  S
C873        C874   1.405       .  A
C874        C875   1.409       .  A
C875        H885   1.084       .  S
C875        C876   1.408       .  A
C876        C877   1.407       .  A
C877        H886   1.085       .  S
C878        H887   1.085       .  S
C878        C879   1.407       .  A
C879        C880   1.407       .  A
C880        H888   1.084       .  S
C889        H905   1.084       .  S
C889        C890   1.396       .  A
C889        C894   1.403       .  A
C890        H906   1.084   1_655  S
C890        C891   1.402       .  A
C891        C901   1.401       .  A
C891        C892   1.412       .  A
C892        C898   1.410       .  A
C892        C893   1.415       .  A
C893        C895   1.414       .  A
C893        C894   1.409       .  A
C894        C902   1.398       .  A
C895        C904   1.413       .  A
C895        C896   1.405       .  A
C896        H907   1.083       .  S
C896        C897   1.404       .  A
C897        H908   1.083       .  S
C897        C898   1.406       .  A
C898        C899   1.410       .  A
C899        H909   1.084       .  S
C899        C900   1.412       .  A
C900        C901   1.407       .  A
C901        H910   1.084   1_655  S
C902        H911   1.085       .  S
C902        C903   1.409       .  A
C903        C904   1.409       .  A
C904        H912   1.084       .  S
C913        H929   1.084       .  S
C913        C914   1.399       .  A
C913        C918   1.403       .  A
C914        H930   1.084       .  S
C914        C915   1.404       .  A
C915        C925   1.401       .  A
C915        C916   1.409       .  A
C916        C922   1.414       .  A
C916        C917   1.415       .  A
C917        C919   1.410       .  A
C917        C918   1.412       .  A
C918        C926   1.405       .  A
C919        C928   1.407       .  A
C919        C920   1.405       .  A
C920        H931   1.084       .  S
C920        C921   1.402       .  A
C921        H932   1.083       .  S
C921        C922   1.404       .  A
C922        C923   1.411       .  A
C923        H933   1.084       .  S
C923        C924   1.408       .  A
C924        C925   1.409       .  A
C925        H934   1.085       .  S
C926        H935   1.084       .  S
C926        C927   1.408       .  A
C927        C928   1.412       .  A
C928        H936   1.084       .  S
C937        H953   1.084       .  S
C937        C938   1.400       .  A
C937        C942   1.404       .  A
C938        H954   1.083       .  S
C938        C939   1.403       .  A
C939        C949   1.409       .  A
C939        C940   1.414       .  A
C940        C946   1.409       .  A
C940        C941   1.415       .  A
C941        C943   1.412       .  A
C941        C942   1.410       .  A
C942        C950   1.405       .  A
C943        C952   1.406       .  A
C943        C944   1.404       .  A
C944        H955   1.084       .  S
C944        C945   1.400       .  A
C945        H956   1.084       .  S
C945        C946   1.404       .  A
C946        C947   1.402       .  A
C947        H957   1.085       .  S
C947        C948   1.410       .  A
C948        C949   1.405       .  A
C949        H958   1.084       .  S
C950        H959   1.084       .  S
C950        C951   1.410       .  A
C951        C952   1.410       .  A
C952        H960   1.084       .  S
C961        H977   1.084       .  S
C961        C962   1.398       .  A
C961        C966   1.403       .  A
C962        H978   1.084       .  S
C962        C963   1.403       .  A
C963        C973   1.401       .  A
C963        C964   1.412       .  A
C964        C970   1.413       .  A
C964        C965   1.410       .  A
C965        C967   1.411       .  A
C965        C966   1.411       .  A
C966        C974   1.401       .  A
C967        C976   1.401       .  A
C967        C968   1.403       .  A
C968        H979   1.084       .  S
C968        C969   1.398       .  A
C969        H980   1.084       .  S
C969        C970   1.402       .  A
C970        C971   1.401       .  A
C971        H981   1.085       .  S
C971        C972   1.400       .  A
C972        C973   1.402       .  A
C973        H982   1.085       .  S
C974        H983   1.084       .  S
C974        C975   1.407       .  A
C975        C976   1.407       .  A
C976        H984   1.084       .  S
C985       H1001   1.084       .  S
C985        C986   1.395       .  A
C985        C990   1.402       .  A
C986       H1002   1.084       .  S
C986        C987   1.402       .  A
C987        C997   1.396       .  A
C987        C988   1.411       .  A
C988        C994   1.411       .  A
C988        C989   1.409       .  A
C989        C991   1.413       .  A
C989        C990   1.411       .  A
C990        C998   1.395       .  A
C991       C1000   1.405       .  A
C991        C992   1.403       .  A
C992       H1003   1.084       .  S
C992        C993   1.400       .  A
C993       H1004   1.083       .  S
C993        C994   1.404       .  A
C994        C995   1.404       .  A
C995       H1005   1.084       .  S
C995        C996   1.407       .  A
C996        C997   1.406       .  A
C997       H1006   1.084       .  S
C998       H1007   1.085       .  S
C998        C999   1.403       .  A
C999       C1000   1.404       .  A
C1000      H1008   1.084       .  S
C1009      H1025   1.083       .  S
C1009      C1010   1.401       .  A
C1009      C1014   1.404       .  A
C1010      H1026   1.084       .  S
C1010      C1011   1.405       .  A
C1011      C1021   1.406       .  A
C1011      C1012   1.412       .  A
C1012      C1018   1.412       .  A
C1012      C1013   1.411       .  A
C1013      C1015   1.411       .  A
C1013      C1014   1.413       .  A
C1014      C1022   1.406       .  A
C1015      C1024   1.399       .  A
C1015      C1016   1.402       .  A
C1016      H1027   1.084       .  S
C1016      C1017   1.397       .  A
C1017      H1028   1.084       .  S
C1017      C1018   1.403       .  A
C1018      C1019   1.400       .  A
C1019      H1029   1.084       .  S
C1019      C1020   1.405       .  A
C1020      C1021   1.408       .  A
C1021      H1030   1.084       .  S
C1022      H1031   1.084       .  S
C1022      C1023   1.405       .  A
C1023      C1024   1.403       .  A
C1024      H1032   1.085       .  S
C1033      H1049   1.084       .  S
C1033      C1034   1.398       .  A
C1033      C1038   1.403       .  A
C1034      H1050   1.084       .  S
C1034      C1035   1.403       .  A
C1035      C1045   1.400       .  A
C1035      C1036   1.412       .  A
C1036      C1042   1.413       .  A
C1036      C1037   1.410       .  A
C1037      C1039   1.411       .  A
C1037      C1038   1.411       .  A
C1038      C1046   1.400       .  A
C1039      C1048   1.403       .  A
C1039      C1040   1.404       .  A
C1040      H1051   1.084       .  S
C1040      C1041   1.399       .  A
C1041      H1052   1.084       .  S
C1041      C1042   1.403       .  A
C1042      C1043   1.403       .  A
C1043      H1053   1.084       .  S
C1043      C1044   1.402       .  A
C1044      C1045   1.403       .  A
C1045      H1054   1.085       .  S
C1046      H1055   1.084       .  S
C1046      C1047   1.407       .  A
C1047      C1048   1.407       .  A
C1048      H1056   1.084       .  S
C1057      H1073   1.084       .  S
C1057      C1058   1.396       .  A
C1057      C1062   1.403       .  A
C1058      H1074   1.084       .  S
C1058      C1059   1.402       .  A
C1059      C1069   1.397       .  A
C1059      C1060   1.411       .  A
C1060      C1066   1.412       .  A
C1060      C1061   1.410       .  A
C1061      C1063   1.411       .  A
C1061      C1062   1.411       .  A
C1062      C1070   1.398       .  A
C1063      C1072   1.404       .  A
C1063      C1064   1.404       .  A
C1064      H1075   1.084       .  S
C1064      C1065   1.400       .  A
C1065      H1076   1.083       .  S
C1065      C1066   1.404       .  A
C1066      C1067   1.404       .  A
C1067      H1077   1.084       .  S
C1067      C1068   1.405       .  A
C1068      C1069   1.404       .  A
C1069      H1078   1.085       .  S
C1070      H1079   1.084       .  S
C1070      C1071   1.407       .  A
C1071      C1072   1.409       .  A
C1072      H1080   1.084       .  S
C1081      H1097   1.084       .  S
C1081      C1082   1.401       .  A
C1081      C1086   1.404       .  A
C1082      H1098   1.083       .  S
C1082      C1083   1.405       .  A
C1083      C1093   1.406       .  A
C1083      C1084   1.412       .  A
C1084      C1090   1.412       .  A
C1084      C1085   1.410       .  A
C1085      C1087   1.411       .  A
C1085      C1086   1.413       .  A
C1086      C1094   1.406       .  A
C1087      C1096   1.396       .  A
C1087      C1088   1.402       .  A
C1088      H1099   1.084       .  S
C1088      C1089   1.395       .  A
C1089      H1100   1.084       .  S
C1089      C1090   1.402       .  A
C1090      C1091   1.397       .  A
C1091      H1101   1.085       .  S
C1091      C1092   1.403       .  A
C1092      C1093   1.408       .  A
C1093      H1102   1.084       .  S
C1094      H1103   1.084       .  S
C1094      C1095   1.405       .  A
C1095      C1096   1.402       .  A
C1096      H1104   1.085       .  S
C1105      H1121   1.083       .  S
C1105      C1106   1.404       .  A
C1105      C1110   1.406       .  A
C1106      H1122   1.083       .  S
C1106      C1107   1.405       .  A
C1107      C1117   1.414       .  A
C1107      C1108   1.414       .  A
C1108      C1114   1.408       .  A
C1108      C1109   1.414       .  A
C1109      C1111   1.412       .  A
C1109      C1110   1.410       .  A
C1110      C1118   1.409       .  A
C1111      C1120   1.400       .  A
C1111      C1112   1.402       .  A
C1112      H1123   1.084       .  S
C1112      C1113   1.395       .  A
C1113      H1124   1.084       .  S
C1113      C1114   1.403       .  A
C1114      C1115   1.396       .  A
C1115      H1125   1.084       .  S
C1115      C1116   1.409       .  A
C1116      C1117   1.409       .  A
C1117      H1126   1.084       .  S
C1118      H1127   1.084       .  S
C1118      C1119   1.411       .  A
C1119      C1120   1.406       .  A
C1120      H1128   1.084       .  S
C1129      H1145   1.084       .  S
C1129      C1130   1.398       .  A
C1129      C1134   1.402       .  A
C1130      H1146   1.083       .  S
C1130      C1131   1.403       .  A
C1131      C1141   1.401       .  A
C1131      C1132   1.411       .  A
C1132      C1138   1.411       .  A
C1132      C1133   1.408       .  A
C1133      C1135   1.412       .  A
C1133      C1134   1.413       .  A
C1134      C1142   1.401       .  A
C1135      C1144   1.398       .  A
C1135      C1136   1.403       .  A
C1136      H1147   1.084       .  S
C1136      C1137   1.397       .  A
C1137      H1148   1.084       .  S
C1137      C1138   1.403       .  A
C1138      C1139   1.399       .  A
C1139      H1149   1.084       .  S
C1139      C1140   1.406       .  A
C1140      C1141   1.406       .  A
C1141      H1150   1.084       .  S
C1142      H1151   1.085       .  S
C1142      C1143   1.400       .  A
C1143      C1144   1.401       .  A
C1144      H1152   1.085       .  S
C1153      H1169   1.084       .  S
C1153      C1154   1.396       .  A
C1153      C1158   1.402       .  A
C1154      H1170   1.084       .  S
C1154      C1155   1.403       .  A
C1155      C1165   1.399       .  A
C1155      C1156   1.411       .  A
C1156      C1162   1.412       .  A
C1156      C1157   1.412       .  A
C1157      C1159   1.412       .  A
C1157      C1158   1.411       .  A
C1158      C1166   1.399       .  A
C1159      C1168   1.406       .  A
C1159      C1160   1.404       .  A
C1160      H1171   1.083       .  S
C1160      C1161   1.401       .  A
C1161      H1172   1.084       .  S
C1161      C1162   1.405       .  A
C1162      C1163   1.406       .  A
C1163      H1173   1.084   1_556  S
C1163      C1164   1.409       .  A
C1164      C1165   1.408       .  A
C1165      H1174   1.084       .  S
C1166      H1175   1.085       .  S
C1166      C1167   1.405       .  A
C1167      C1168   1.407       .  A
C1168      H1176   1.084       .  S
C1177      H1193   1.084       .  S
C1177      C1178   1.398       .  A
C1177      C1182   1.403       .  A
C1178      H1194   1.084       .  S
C1178      C1179   1.403       .  A
C1179      C1189   1.401       .  A
C1179      C1180   1.411       .  A
C1180      C1186   1.412       .  A
C1180      C1181   1.411       .  A
C1181      C1183   1.413       .  A
C1181      C1182   1.412       .  A
C1182      C1190   1.401       .  A
C1183      C1192   1.403       .  A
C1183      C1184   1.403       .  A
C1184      H1195   1.084       .  S
C1184      C1185   1.399       .  A
C1185      H1196   1.083       .  S
C1185      C1186   1.403       .  A
C1186      C1187   1.403       .  A
C1187      H1197   1.084       .  S
C1187      C1188   1.406       .  A
C1188      C1189   1.407       .  A
C1189      H1198   1.084       .  S
C1190      H1199   1.085       .  S
C1190      C1191   1.404       .  A
C1191      C1192   1.403       .  A
C1192      H1200   1.084       .  S
C1201      H1217   1.084       .  S
C1201      C1202   1.397       .  A
C1201      C1206   1.403       .  A
C1202      H1218   1.084   1_565  S
C1202      C1203   1.403       .  A
C1203      C1213   1.400       .  A
C1203      C1204   1.411       .  A
C1204      C1210   1.411       .  A
C1204      C1205   1.413       .  A
C1205      C1207   1.413       .  A
C1205      C1206   1.410       .  A
C1206      C1214   1.399       .  A
C1207      C1216   1.409       .  A
C1207      C1208   1.404       .  A
C1208      H1219   1.083       .  S
C1208      C1209   1.402       .  A
C1209      H1220   1.084       .  S
C1209      C1210   1.405       .  A
C1210      C1211   1.407       .  A
C1211      H1221   1.084       .  S
C1211      C1212   1.410       .  A
C1212      C1213   1.408       .  A
C1213      H1222   1.084   1_565  S
C1214      H1223   1.085       .  S
C1214      C1215   1.407       .  A
C1215      C1216   1.406       .  A
C1216      H1224   1.084       .  S
C1225      H1241   1.083       .  S
C1225      C1226   1.402       .  A
C1225      C1230   1.405       .  A
C1226      H1242   1.083       .  S
C1226      C1227   1.404       .  A
C1227      C1237   1.407       .  A
C1227      C1228   1.413       .  A
C1228      C1234   1.410       .  A
C1228      C1229   1.411       .  A
C1229      C1231   1.411       .  A
C1229      C1230   1.411       .  A
C1230      C1238   1.407       .  A
C1231      C1240   1.397       .  A
C1231      C1232   1.402       .  A
C1232      H1243   1.084       .  S
C1232      C1233   1.395       .  A
C1233      H1244   1.084       .  S
C1233      C1234   1.402       .  A
C1234      C1235   1.395       .  A
C1235      H1245   1.085       .  S
C1235      C1236   1.406       .  A
C1236      C1237   1.407       .  A
C1237      H1246   1.084       .  S
C1238      H1247   1.084       .  S
C1238      C1239   1.410       .  A
C1239      C1240   1.406       .  A
C1240      H1248   1.084       .  S
C1249      H1265   1.083       .  S
C1249      C1250   1.402       .  A
C1249      C1254   1.405       .  A
C1250      H1266   1.084       .  S
C1250      C1251   1.405       .  A
C1251      C1261   1.406       .  A
C1251      C1252   1.412       .  A
C1252      C1258   1.412       .  A
C1252      C1253   1.408       .  A
C1253      C1255   1.409       .  A
C1253      C1254   1.414       .  A
C1254      C1262   1.408       .  A
C1255      C1264   1.391       .  A
C1255      C1256   1.401       .  A
C1256      H1267   1.084       .  S
C1256      C1257   1.392       .  A
C1257      H1268   1.084       .  S
C1257      C1258   1.401       .  A
C1258      C1259   1.393       .  A
C1259      H1269   1.085       .  S
C1259      C1260   1.401       .  A
C1260      C1261   1.406       .  A
C1261      H1270   1.084       .  S
C1262      H1271   1.084       .  S
C1262      C1263   1.406       .  A
C1263      C1264   1.404       .  A
C1264      H1272   1.085       .  S
C1273      H1289   1.084       .  S
C1273      C1274   1.400       .  A
C1273      C1278   1.404       .  A
C1274      H1290   1.083       .  S
C1274      C1275   1.403       .  A
C1275      C1285   1.407       .  A
C1275      C1276   1.413       .  A
C1276      C1282   1.410       .  A
C1276      C1277   1.414       .  A
C1277      C1279   1.412       .  A
C1277      C1278   1.410       .  A
C1278      C1286   1.404       .  A
C1279      C1288   1.406       .  A
C1279      C1280   1.404       .  A
C1280      H1291   1.084       .  S
C1280      C1281   1.400       .  A
C1281      H1292   1.084       .  S
C1281      C1282   1.404       .  A
C1282      C1283   1.403       .  A
C1283      H1293   1.084       .  S
C1283      C1284   1.409       .  A
C1284      C1285   1.406       .  A
C1285      H1294   1.084       .  S
C1286      H1295   1.084       .  S
C1286      C1287   1.409       .  A
C1287      C1288   1.410       .  A
C1288      H1296   1.084       .  S
C1297      H1313   1.084       .  S
C1297      C1298   1.398       .  A
C1297      C1302   1.403       .  A
C1298      H1314   1.084       .  S
C1298      C1299   1.403       .  A
C1299      C1309   1.399       .  A
C1299      C1300   1.411       .  A
C1300      C1306   1.414       .  A
C1300      C1301   1.409       .  A
C1301      C1303   1.410       .  A
C1301      C1302   1.413       .  A
C1302      C1310   1.403       .  A
C1303      C1312   1.399       .  A
C1303      C1304   1.404       .  A
C1304      H1315   1.084       .  S
C1304      C1305   1.398       .  A
C1305      H1316   1.084       .  S
C1305      C1306   1.402       .  A
C1306      C1307   1.402       .  A
C1307      H1317   1.085       .  S
C1307      C1308   1.400       .  A
C1308      C1309   1.401       .  A
C1309      H1318   1.085       .  S
C1310      H1319   1.084       .  S
C1310      C1311   1.407       .  A
C1311      C1312   1.408       .  A
C1312      H1320   1.084       .  S
C1321      H1337   1.084       .  S
C1321      C1322   1.394       .  A
C1321      C1326   1.402       .  A
C1322      H1338   1.083       .  S
C1322      C1323   1.402       .  A
C1323      C1333   1.394       .  A
C1323      C1324   1.411       .  A
C1324      C1330   1.414       .  A
C1324      C1325   1.409       .  A
C1325      C1327   1.412       .  A
C1325      C1326   1.411       .  A
C1326      C1334   1.396       .  A
C1327      C1336   1.405       .  A
C1327      C1328   1.405       .  A
C1328      H1339   1.083       .  S
C1328      C1329   1.401       .  A
C1329      H1340   1.084       .  S
C1329      C1330   1.404       .  A
C1330      C1331   1.406       .  A
C1331      H1341   1.084       .  S
C1331      C1332   1.404       .  A
C1332      C1333   1.402       .  A
C1333      H1342   1.085       .  S
C1334      H1343   1.085       .  S
C1334      C1335   1.404       .  A
C1335      C1336   1.408       .  A
C1336      H1344   1.084       .  S
C1345      H1361   1.084       .  S
C1345      C1346   1.395       .  A
C1345      C1350   1.401       .  A
C1346      H1362   1.084       .  S
C1346      C1347   1.402       .  A
C1347      C1357   1.395       .  A
C1347      C1348   1.411       .  A
C1348      C1354   1.412       .  A
C1348      C1349   1.409       .  A
C1349      C1351   1.413       .  A
C1349      C1350   1.412       .  A
C1350      C1358   1.396       .  A
C1351      C1360   1.405       .  A
C1351      C1352   1.404       .  A
C1352      H1363   1.083       .  S
C1352      C1353   1.401       .  A
C1353      H1364   1.084       .  S
C1353      C1354   1.404       .  A
C1354      C1355   1.405       .  A
C1355      H1365   1.084       .  S
C1355      C1356   1.406       .  A
C1356      C1357   1.404       .  A
C1357      H1366   1.085       .  S
C1358      H1367   1.085       .  S
C1358      C1359   1.400       .  A
C1359      C1360   1.404       .  A
C1360      H1368   1.084       .  S
C1369      H1385   1.084       .  S
C1369      C1370   1.396       .  A
C1369      C1374   1.403       .  A
C1370      H1386   1.084       .  S
C1370      C1371   1.402       .  A
C1371      C1381   1.398       .  A
C1371      C1372   1.411       .  A
C1372      C1378   1.413       .  A
C1372      C1373   1.410       .  A
C1373      C1375   1.412       .  A
C1373      C1374   1.411       .  A
C1374      C1382   1.398       .  A
C1375      C1384   1.405       .  A
C1375      C1376   1.404       .  A
C1376      H1387   1.083       .  S
C1376      C1377   1.400       .  A
C1377      H1388   1.084       .  S
C1377      C1378   1.404       .  A
C1378      C1379   1.405       .  A
C1379      H1389   1.084       .  S
C1379      C1380   1.403       .  A
C1380      C1381   1.402       .  A
C1381      H1390   1.085       .  S
C1382      H1391   1.084       .  S
C1382      C1383   1.406       .  A
C1383      C1384   1.407       .  A
C1384      H1392   1.084       .  S
C1393      H1409   1.083       .  S
C1393      C1394   1.399       .  A
C1393      C1398   1.404       .  A
C1394      H1410   1.084       .  S
C1394      C1395   1.403       .  A
C1395      C1405   1.405       .  A
C1395      C1396   1.413       .  A
C1396      C1402   1.410       .  A
C1396      C1397   1.411       .  A
C1397      C1399   1.412       .  A
C1397      C1398   1.410       .  A
C1398      C1406   1.402       .  A
C1399      C1408   1.402       .  A
C1399      C1400   1.403       .  A
C1400      H1411   1.084       .  S
C1400      C1401   1.398       .  A
C1401      H1412   1.084       .  S
C1401      C1402   1.403       .  A
C1402      C1403   1.400       .  A
C1403      H1413   1.084       .  S
C1403      C1404   1.407       .  A
C1404      C1405   1.405       .  A
C1405      H1414   1.084       .  S
C1406      H1415   1.084       .  S
C1406      C1407   1.409       .  A
C1407      C1408   1.407       .  A
C1408      H1416   1.084   1_655  S
C1417      H1433   1.084       .  S
C1417      C1418   1.401       .  A
C1417      C1422   1.404       .  A
C1418      H1434   1.083       .  S
C1418      C1419   1.404       .  A
C1419      C1429   1.405       .  A
C1419      C1420   1.412       .  A
C1420      C1426   1.411       .  A
C1420      C1421   1.409       .  A
C1421      C1423   1.412       .  A
C1421      C1422   1.413       .  A
C1422      C1430   1.405       .  A
C1423      C1432   1.396       .  A
C1423      C1424   1.401       .  A
C1424      H1435   1.084       .  S
C1424      C1425   1.395       .  A
C1425      H1436   1.084       .  S
C1425      C1426   1.402       .  A
C1426      C1427   1.396       .  A
C1427      H1437   1.085       .  S
C1427      C1428   1.405       .  A
C1428      C1429   1.408       .  A
C1429      H1438   1.084       .  S
C1430      H1439   1.084       .  S
C1430      C1431   1.404       .  A
C1431      C1432   1.401       .  A
C1432      H1440   1.085       .  S
C1441      H1457   1.083       .  S
C1441      C1442   1.401       .  A
C1441      C1446   1.404       .  A
C1442      H1458   1.083       .  S
C1442      C1443   1.405       .  A
C1443      C1453   1.405       .  A
C1443      C1444   1.410       .  A
C1444      C1450   1.413       .  A
C1444      C1445   1.413       .  A
C1445      C1447   1.408       .  A
C1445      C1446   1.414       .  A
C1446      C1454   1.410       .  A
C1447      C1456   1.398       .  A
C1447      C1448   1.404       .  A
C1448      H1459   1.084       .  S
C1448      C1449   1.397       .  A
C1449      H1460   1.084       .  S
C1449      C1450   1.403       .  A
C1450      C1451   1.402       .  A
C1451      H1461   1.084       .  S
C1451      C1452   1.407       .  A
C1452      C1453   1.410       .  A
C1453      H1462   1.084       .  S
C1454      H1463   1.084       .  S
C1454      C1455   1.406       .  A
C1455      C1456   1.409       .  A
C1456      H1464   1.085       .  S
C1465      H1481   1.084       .  S
C1465      C1466   1.399       .  A
C1465      C1470   1.403       .  A
C1466      H1482   1.084       .  S
C1466      C1467   1.404       .  A
C1467      C1477   1.403       .  A
C1467      C1468   1.411       .  A
C1468      C1474   1.411       .  A
C1468      C1469   1.409       .  A
C1469      C1471   1.412       .  A
C1469      C1470   1.413       .  A
C1470      C1478   1.403       .  A
C1471      C1480   1.399       .  A
C1471      C1472   1.402       .  A
C1472      H1483   1.084       .  S
C1472      C1473   1.396       .  A
C1473      H1484   1.084       .  S
C1473      C1474   1.403       .  A
C1474      C1475   1.398       .  A
C1475      H1485   1.084       .  S
C1475      C1476   1.406       .  A
C1476      C1477   1.408       .  A
C1477      H1486   1.084       .  S
C1478      H1487   1.084       .  S
C1478      C1479   1.402       .  A
C1479      C1480   1.401       .  A
C1480      H1488   1.085       .  S
C1489      H1505   1.083       .  S
C1489      C1490   1.402       .  A
C1489      C1494   1.404       .  A
C1490      H1506   1.083       .  S
C1490      C1491   1.405       .  A
C1491      C1501   1.407       .  A
C1491      C1492   1.411       .  A
C1492      C1498   1.411       .  A
C1492      C1493   1.413       .  A
C1493      C1495   1.410       .  A
C1493      C1494   1.413       .  A
C1494      C1502   1.409       .  A
C1495      C1504   1.399       .  A
C1495      C1496   1.403       .  A
C1496      H1507   1.084       .  S
C1496      C1497   1.397       .  A
C1497      H1508   1.084       .  S
C1497      C1498   1.403       .  A
C1498      C1499   1.402       .  A
C1499      H1509   1.084       .  S
C1499      C1500   1.408       .  A
C1500      C1501   1.410       .  A
C1501      H1510   1.084       .  S
C1502      H1511   1.084       .  S
C1502      C1503   1.406       .  A
C1503      C1504   1.408       .  A
C1504      H1512   1.085       .  S
C1513      H1529   1.084       .  S
C1513      C1514   1.397       .  A
C1513      C1518   1.403       .  A
C1514      H1530   1.084       .  S
C1514      C1515   1.403       .  A
C1515      C1525   1.400       .  A
C1515      C1516   1.411       .  A
C1516      C1522   1.412       .  A
C1516      C1517   1.413       .  A
C1517      C1519   1.413       .  A
C1517      C1518   1.411       .  A
C1518      C1526   1.400       .  A
C1519      C1528   1.407       .  A
C1519      C1520   1.404       .  A
C1520      H1531   1.084       .  S
C1520      C1521   1.402       .  A
C1521      H1532   1.083       .  S
C1521      C1522   1.405       .  A
C1522      C1523   1.408       .  A
C1523      H1533   1.084       .  S
C1523      C1524   1.409       .  A
C1524      C1525   1.408       .  A
C1525      H1534   1.084       .  S
C1526      H1535   1.085       .  S
C1526      C1527   1.406       .  A
C1527      C1528   1.406       .  A
C1528      H1536   1.084       .  S
C1537      H1553   1.084       .  S
C1537      C1538   1.398       .  A
C1537      C1542   1.403       .  A
C1538      H1554   1.083       .  S
C1538      C1539   1.403       .  A
C1539      C1549   1.403       .  A
C1539      C1540   1.413       .  A
C1540      C1546   1.412       .  A
C1540      C1541   1.412       .  A
C1541      C1543   1.411       .  A
C1541      C1542   1.411       .  A
C1542      C1550   1.402       .  A
C1543      C1552   1.403       .  A
C1543      C1544   1.404       .  A
C1544      H1555   1.083       .  S
C1544      C1545   1.399       .  A
C1545      H1556   1.084       .  S
C1545      C1546   1.403       .  A
C1546      C1547   1.403       .  A
C1547      H1557   1.085       .  S
C1547      C1548   1.403       .  A
C1548      C1549   1.402       .  A
C1549      H1558   1.084       .  S
C1550      H1559   1.084       .  S
C1550      C1551   1.408       .  A
C1551      C1552   1.408       .  A
C1552      H1560   1.084       .  S
C1561      H1577   1.083       .  S
C1561      C1562   1.398       .  A
C1561      C1566   1.403       .  A
C1562      H1578   1.084       .  S
C1562      C1563   1.403       .  A
C1563      C1573   1.400       .  A
C1563      C1564   1.412       .  A
C1564      C1570   1.413       .  A
C1564      C1565   1.412       .  A
C1565      C1567   1.411       .  A
C1565      C1566   1.411       .  A
C1566      C1574   1.401       .  A
C1567      C1576   1.404       .  A
C1567      C1568   1.404       .  A
C1568      H1579   1.084       .  S
C1568      C1569   1.400       .  A
C1569      H1580   1.083       .  S
C1569      C1570   1.403       .  A
C1570      C1571   1.405       .  A
C1571      H1581   1.084       .  S
C1571      C1572   1.402       .  A
C1572      C1573   1.402       .  A
C1573      H1582   1.085       .  S
C1574      H1583   1.084       .  S
C1574      C1575   1.407       .  A
C1575      C1576   1.409       .  A
C1576      H1584   1.084       .  S
C1585      H1601   1.083       .  S
C1585      C1586   1.398       .  A
C1585      C1590   1.403       .  A
C1586      H1602   1.084       .  S
C1586      C1587   1.403       .  A
C1587      C1597   1.401       .  A
C1587      C1588   1.411       .  A
C1588      C1594   1.412       .  A
C1588      C1589   1.412       .  A
C1589      C1591   1.413       .  A
C1589      C1590   1.412       .  A
C1590      C1598   1.401       .  A
C1591      C1600   1.406       .  A
C1591      C1592   1.404       .  A
C1592      H1603   1.084       .  S
C1592      C1593   1.401       .  A
C1593      H1604   1.083       .  S
C1593      C1594   1.404       .  A
C1594      C1595   1.406       .  A
C1595      H1605   1.084       .  S
C1595      C1596   1.409       .  A
C1596      C1597   1.407       .  A
C1597      H1606   1.084       .  S
C1598      H1607   1.085       .  S
C1598      C1599   1.403       .  A
C1599      C1600   1.404       .  A
C1600      H1608   1.084       .  S
C1609      H1625   1.084       .  S
C1609      C1610   1.397       .  A
C1609      C1614   1.403       .  A
C1610      H1626   1.084       .  S
C1610      C1611   1.403       .  A
C1611      C1621   1.402       .  A
C1611      C1612   1.411       .  A
C1612      C1618   1.411       .  A
C1612      C1613   1.414       .  A
C1613      C1615   1.413       .  A
C1613      C1614   1.410       .  A
C1614      C1622   1.400       .  A
C1615      C1624   1.411       .  A
C1615      C1616   1.405       .  A
C1616      H1627   1.083       .  S
C1616      C1617   1.403       .  A
C1617      H1628   1.083       .  S
C1617      C1618   1.405       .  A
C1618      C1619   1.409       .  A
C1619      H1629   1.084       .  S
C1619      C1620   1.411       .  A
C1620      C1621   1.408       .  A
C1621      H1630   1.084       .  S
C1622      H1631   1.085       .  S
C1622      C1623   1.408       .  A
C1623      C1624   1.408       .  A
C1624      H1632   1.084       .  S
C1633      H1649   1.084       .  S
C1633      C1634   1.397       .  A
C1633      C1638   1.403       .  A
C1634      H1650   1.084       .  S
C1634      C1635   1.402       .  A
C1635      C1645   1.401       .  A
C1635      C1636   1.412       .  A
C1636      C1642   1.412       .  A
C1636      C1637   1.414       .  A
C1637      C1639   1.414       .  A
C1637      C1638   1.410       .  A
C1638      C1646   1.398       .  A
C1639      C1648   1.411       .  A
C1639      C1640   1.405       .  A
C1640      H1651   1.083       .  S
C1640      C1641   1.403       .  A
C1641      H1652   1.083       .  S
C1641      C1642   1.405       .  A
C1642      C1643   1.409       .  A
C1643      H1653   1.084       .  S
C1643      C1644   1.409       .  A
C1644      C1645   1.405       .  A
C1645      H1654   1.085       .  S
C1646      H1655   1.085       .  S
C1646      C1647   1.406       .  A
C1647      C1648   1.407       .  A
C1648      H1656   1.084       .  S
C1657      H1673   1.084       .  S
C1657      C1658   1.395       .  A
C1657      C1662   1.402       .  A
C1658      H1674   1.084       .  S
C1658      C1659   1.402       .  A
C1659      C1669   1.397       .  A
C1659      C1660   1.411       .  A
C1660      C1666   1.411       .  A
C1660      C1661   1.409       .  A
C1661      C1663   1.413       .  A
C1661      C1662   1.410       .  A
C1662      C1670   1.396       .  A
C1663      C1672   1.405       .  A
C1663      C1664   1.404       .  A
C1664      H1675   1.083       .  S
C1664      C1665   1.400       .  A
C1665      H1676   1.084       .  S
C1665      C1666   1.404       .  A
C1666      C1667   1.403       .  A
C1667      H1677   1.084       .  S
C1667      C1668   1.408       .  A
C1668      C1669   1.406       .  A
C1669      H1678   1.084       .  S
C1670      H1679   1.085       .  S
C1670      C1671   1.404       .  A
C1671      C1672   1.405       .  A
C1672      H1680   1.084       .  S
C1681      H1697   1.084       .  S
C1681      C1682   1.395       .  A
C1681      C1686   1.402       .  A
C1682      H1698   1.084       .  S
C1682      C1683   1.402       .  A
C1683      C1693   1.396       .  A
C1683      C1684   1.412       .  A
C1684      C1690   1.412       .  A
C1684      C1685   1.409       .  A
C1685      C1687   1.413       .  A
C1685      C1686   1.411       .  A
C1686      C1694   1.396       .  A
C1687      C1696   1.405       .  A
C1687      C1688   1.404       .  A
C1688      H1699   1.083       .  S
C1688      C1689   1.401       .  A
C1689      H1700   1.084       .  S
C1689      C1690   1.404       .  A
C1690      C1691   1.404       .  A
C1691      H1701   1.084       .  S
C1691      C1692   1.405       .  A
C1692      C1693   1.402       .  A
C1693      H1702   1.085       .  S
C1694      H1703   1.085       .  S
C1694      C1695   1.402       .  A
C1695      C1696   1.405       .  A
C1696      H1704   1.084       .  S
C1705      H1721   1.084       .  S
C1705      C1706   1.397       .  A
C1705      C1710   1.403       .  A
C1706      H1722   1.084       .  S
C1706      C1707   1.403       .  A
C1707      C1717   1.401       .  A
C1707      C1708   1.412       .  A
C1708      C1714   1.411       .  A
C1708      C1709   1.411       .  A
C1709      C1711   1.413       .  A
C1709      C1710   1.411       .  A
C1710      C1718   1.400       .  A
C1711      C1720   1.405       .  A
C1711      C1712   1.403       .  A
C1712      H1723   1.084       .  S
C1712      C1713   1.400       .  A
C1713      H1724   1.083       .  S
C1713      C1714   1.404       .  A
C1714      C1715   1.404       .  A
C1715      H1725   1.084       .  S
C1715      C1716   1.409       .  A
C1716      C1717   1.407       .  A
C1717      H1726   1.084       .  S
C1718      H1727   1.085       .  S
C1718      C1719   1.405       .  A
C1719      C1720   1.404       .  A
C1720      H1728   1.084       .  S
