geometry optimzed in LAMMPS
_audit_creation_date              2020-11-30 
_audit_creation_method            'lammps2cif' 
_symmetry_space_group_name_H-M    'P1' 
_symmetry_Int_Tables_number       1 
_symmetry_cell_setting            triclinic 
loop_ 
_symmetry_equiv_pos_as_xyz 
  x,y,z 
_cell_length_a                    43.6474994 
_cell_length_b                    35.95618720839759 
_cell_length_c                    41.62723773506728 
_cell_angle_alpha                 88.7428203925714 
_cell_angle_beta                  90.05559991368779 
_cell_angle_gamma                 90.61528224106533 
loop_ 
_atom_site_label 
_atom_site_type_symbol 
_atom_site_fract_x 
_atom_site_fract_y 
_atom_site_fract_z 
_atom_site_charge 
C1          C  0.66971005  0.02456615  0.74848889    -0.10300
C2          C  0.65430660  0.05815349  0.74383642    -0.04200
C3          C  0.66395357  0.09078830  0.75811261    -0.10300
C4          C  0.68945933  0.09030672  0.77869645     0.10600
C5          C  0.70532597  0.05642453  0.78450206    -0.02100
C6          C  0.69554216  0.02317606  0.76938884     0.10400
C7          C  0.71175156  0.99015651  0.77581977    -0.12100
C8          C  0.73707562  0.98973218  0.79684314    -0.12100
C9          C  0.74731424  0.02245759  0.81160196     0.10400
C10         C  0.73124139  0.05616298  0.80513940    -0.02100
C11         C  0.69937370  0.12294078  0.79353773    -0.12200
C12         C  0.72469728  0.12270851  0.81362280    -0.12200
C13         C  0.74088273  0.08981259  0.81958443     0.10600
C14         C  0.76653049  0.08969428  0.83985402    -0.10300
C15         C  0.78233687  0.05705712  0.84560927    -0.04200
C16         C  0.77315777  0.02331230  0.83258850    -0.10300
H17         H  0.70473522  0.96443764  0.76477621     0.07900
H18         H  0.74883081  0.96375081  0.80127646     0.07900
H19         H  0.68755136  0.14899405  0.78974413     0.08100
H20         H  0.73155669  0.14861193  0.82445655     0.08100
H21         H  0.63495441  0.05930473  0.72740089     0.04500
H22         H  0.80187188  0.05773330  0.86183296     0.04500
O23         O  0.53369269  0.25854871  0.60098114    -0.80400
O24         O  0.43270002  0.26674310  0.49018664    -0.65100
O25         O  0.47867257  0.26054332  0.56775974    -1.11700
C26         C  0.46669532  0.13114213  0.55668331     1.06500
O27         O  0.40179096  0.21779580  0.49967958    -0.78300
O28         O  0.40778822  0.20862049  0.56425819    -0.65800
Ni29       Ni  0.51485728  0.29148609  0.56990754     1.34900
C30         C  0.42096523  0.21027278  0.59138928     0.85300
O31         O  0.45179872  0.31748286  0.53187544    -0.78800
O32         O  0.50048694  0.33092406  0.54105906    -0.89100
C33         C  0.40904583  0.24735551  0.48388519     0.84800
O34         O  0.53295316  0.26618277  0.53521480    -0.67300
O35         O  0.43904382  0.14195873  0.55392108    -0.86600
C36         C  0.52156728  0.26328142  0.50722578     0.85700
C37         C  0.47324957  0.34119226  0.53523870     1.07200
H38         H  0.47190601  0.20421635  0.50912341     0.39000
O39         O  0.45983970  0.21147620  0.52734085    -1.09200
O40         O  0.44905962  0.20121078  0.59504674    -0.65900
Ni41       Ni  0.48375590  0.20725332  0.56535278     1.26300
O42         O  0.49295904  0.26813407  0.50135102    -0.66100
O43         O  0.48850196  0.15446648  0.56012648    -0.78400
C44         C  0.52898921  0.22612322  0.61292812     0.85000
O45         O  0.50887255  0.20372634  0.60248864    -0.65600
Ni46       Ni  0.42247853  0.18287713  0.52785605     1.27400
Ni47       Ni  0.45620912  0.26446476  0.52860504     1.26100
H48         H  0.46546621  0.26677784  0.58540978     0.39600
O49         O  0.40550601  0.46522444  0.59666969    -0.80400
O50         O  0.50349362  0.45720658  0.48420705    -0.65100
O51         O  0.46124089  0.46118121  0.56393833    -1.11700
C52         C  0.47332454  0.09057123  0.55471429     1.06500
O53         O  0.53085306  0.50981425  0.48628933    -0.78300
O54         O  0.53242904  0.01307686  0.55200729    -0.65800
Ni55       Ni  0.42449745  0.43144594  0.56763861     1.34900
C56         C  0.52284549  0.01053043  0.58080768     0.85300
O57         O  0.48737191  0.40554297  0.52864827    -0.78800
O58         O  0.43908653  0.39156311  0.54092994    -0.89100
C59         C  0.52412022  0.47913560  0.47315824     0.84800
O60         O  0.40596727  0.45662190  0.53210644    -0.67300
O61         O  0.50007421  0.08015056  0.54670296    -0.86600
C62         C  0.41666386  0.45883385  0.50377914     0.85700
C63         C  0.46624801  0.38164718  0.53438520     1.07200
H64         H  0.46147682  0.01806567  0.50654273     0.39000
O65         O  0.47677827  0.51175896  0.52157371    -1.09200
O66         O  0.49536748  0.01883774  0.58825547    -0.65900
Ni67       Ni  0.45706264  0.01413488  0.56426795     1.26300
O68         O  0.44495340  0.45310761  0.49786626    -0.66100
O69         O  0.45195580  0.06699529  0.55987941    -0.78400
C70         C  0.41549317  0.99649321  0.61535403     0.85000
O71         O  0.43768511  0.01615388  0.60487093    -0.65600
Ni72       Ni  0.51273126  0.04049819  0.51808150     1.27400
Ni73       Ni  0.48197686  0.45855619  0.52385550     1.26100
H74         H  0.47489395  0.45393528  0.58094474     0.39600
C75         C  0.28156624  0.19145887  0.76442151    -0.10300
C76         C  0.29805129  0.15859939  0.76139207    -0.04200
C77         C  0.28573438  0.12400434  0.77007042    -0.10300
C78         C  0.25649568  0.12188297  0.78431558     0.10600
C79         C  0.23985004  0.15508740  0.78937225    -0.02100
C80         C  0.25225141  0.19013948  0.77920161     0.10400
C81         C  0.23511105  0.22242845  0.78425480    -0.12100
C82         C  0.20643663  0.22045107  0.79956415    -0.12100
C83         C  0.19361765  0.18601624  0.80946287     0.10400
C84         C  0.21040720  0.15296438  0.80380099    -0.02100
C85         C  0.24358756  0.08739426  0.79357594    -0.12200
C86         C  0.21484630  0.08531542  0.80778751    -0.12200
C87         C  0.19807540  0.11765382  0.81317698     0.10600
C88         C  0.16930401  0.11559579  0.82814430    -0.10300
C89         C  0.15299367  0.14781392  0.83326017    -0.04200
C90         C  0.16441512  0.18307047  0.82462216    -0.10300
H91         H  0.24410066  0.24946693  0.77686483     0.07900
H92         H  0.19414707  0.24599555  0.80329051     0.07900
H93         H  0.25580652  0.06172734  0.79018630     0.08100
H94         H  0.20580659  0.05809757  0.81457056     0.08100
H95         H  0.31987744  0.15956660  0.74884923     0.04500
H96         H  0.13154378  0.14541040  0.84641834     0.04500
O97         O  0.89816513  0.24435659  0.00477652    -0.80400
O98         O  0.00611387  0.25376045  0.10244762    -0.65100
O99         O  0.95861448  0.25684066  0.02582563    -1.11700
C100        C  0.97603182  0.12512012  0.02938309     1.06500
O101        O  0.04118397  0.21902473  0.07961256    -0.78300
O102        O  0.03427049  0.19443160  0.01969271    -0.65800
Ni103      Ni  0.92119389  0.28427253  0.02373388     1.34900
C104        C  0.02122066  0.20521216  0.99393854     0.85300
O105        O  0.98286811  0.31066953  0.06742647    -0.78800
O106        O  0.94033703  0.32812028  0.04104111    -0.89100
C107        C  0.03269145  0.23984747  0.10216564     0.84800
O108        O  0.90528931  0.26965035  0.06479201    -0.67300
O109        O  0.00110130  0.13370301  0.04330040    -0.86600
C110        C  0.91752656  0.25830075  0.09082890     0.85700
C111        C  0.96476915  0.33568004  0.05647327     1.07200
H112        H  0.96852196  0.19253475  0.07680356     0.39000
O113        O  0.98101433  0.20377115  0.06000101    -1.09200
O114        O  0.99217151  0.20825589  0.99164869    -0.65900
Ni115      Ni  0.95767459  0.20359733  0.02141706     1.26300
O116        O  0.94626055  0.25250983  0.09357537    -0.66100
O117        O  0.95681033  0.14948135  0.01935371    -0.78400
C118        C  0.90597304  0.22051105  0.98428128     0.85000
O119        O  0.93226808  0.20581295  0.98437769    -0.65600
Ni120      Ni  0.01931185  0.17812642  0.06074705     1.27400
Ni121      Ni  0.98154467  0.25676958  0.06479559     1.26100
H122        H  0.97171266  0.26766443  0.00935098     0.39600
O123        O  0.03879719  0.45669379  0.99692117    -0.80400
O124        O  0.93301309  0.45264550  0.10063444    -0.65100
O125        O  0.98159245  0.45464234  0.02525851    -1.11700
C126        C  0.96853879  0.08458419  0.02782403     1.06500
O127        O  0.90303703  0.50074483  0.08884617    -0.78300
O128        O  0.90944159  0.00629442  0.02160483    -0.65800
Ni129      Ni  0.01772609  0.42437260  0.02686857     1.34900
C130        C  0.92371526  0.00421282  0.99514448     0.85300
O131        O  0.95221069  0.39975383  0.06143173    -0.78800
O132        O  0.00095917  0.38568367  0.05533716    -0.89100
C133        C  0.90971474  0.47219575  0.10605276     0.84800
O134        O  0.03441816  0.45066318  0.06202071    -0.67300
O135        O  0.94071188  0.07379345  0.03039649    -0.82200
C136        C  0.02167537  0.45459826  0.08914380     0.85700
C137        C  0.97314164  0.37575241  0.05877758     1.07200
H138        H  0.97178232  0.01521033  0.07982880     0.39000
O139        O  0.96172439  0.50612852  0.06217498    -1.09200
O140        O  0.95249443  0.01102977  0.99300360    -0.65900
Ni141      Ni  0.98580248  0.00795414  0.02465440     1.26300
O142        O  0.99266553  0.45031372  0.09292233    -0.66100
O143        O  0.99022294  0.06123863  0.02650362    -0.78400
C144        C  0.03437381  0.98701457  0.98243323     0.85000
O145        O  0.01233773  0.00845994  0.98862775    -0.65600
Ni146      Ni  0.92304312  0.03410728  0.05769775     1.27400
Ni147      Ni  0.95756222  0.45292777  0.06326952     1.26100
H148        H  0.96914026  0.44675049  0.00739520     0.39600
C149        C  0.28047251  0.36643431  0.32243861    -0.10300
C150        C  0.29040713  0.39930133  0.33622009    -0.04200
C151        C  0.27433591  0.43244914  0.33237601    -0.10300
C152        C  0.24834067  0.43371285  0.31210027     0.10600
C153        C  0.23878447  0.40070637  0.29661507    -0.02100
C154        C  0.25474345  0.36683926  0.30210097     0.10400
C155        C  0.24456914  0.33426461  0.28735627    -0.12100
C156        C  0.21900952  0.33470034  0.26751178    -0.12100
C157        C  0.20290883  0.36775952  0.26174627     0.10400
C158        C  0.21271108  0.40117356  0.27637825    -0.02100
C159        C  0.23164074  0.46655674  0.30698099    -0.12200
C160        C  0.20609312  0.46715696  0.28656283    -0.12200
C161        C  0.19632229  0.43482163  0.27099487     0.10600
C162        C  0.17050003  0.43454574  0.25031356    -0.10300
C163        C  0.16185478  0.40141661  0.23572816    -0.04200
C164        C  0.17721540  0.36835162  0.24151865    -0.10300
H165        H  0.25643306  0.30820865  0.29098598     0.07900
H166        H  0.21200199  0.30890724  0.25658882     0.07900
H167        H  0.23847470  0.49204309  0.31852168     0.08100
H168        H  0.19396144  0.49304393  0.28305779     0.08100
H169        H  0.30977133  0.39838359  0.35264635     0.04500
H170        H  0.14225254  0.40121102  0.21960776     0.04500
C171        C  0.65890291  0.34757474  0.32726828    -0.10300
C172        C  0.64745093  0.31389537  0.33922025    -0.04200
C173        C  0.66205766  0.28012630  0.33428448    -0.10300
C174        C  0.68949758  0.27983574  0.31583790     0.10600
C175        C  0.70193748  0.31429439  0.30403226    -0.02100
C176        C  0.68670760  0.34830531  0.31012829     0.10400
C177        C  0.69951881  0.38206916  0.29888241    -0.12100
C178        C  0.72709043  0.38279160  0.28224921    -0.12100
C179        C  0.74246636  0.34971560  0.27577710     0.10400
C180        C  0.72977381  0.31497320  0.28632840    -0.02100
C181        C  0.70463375  0.24668791  0.30848507    -0.12200
C182        C  0.73146231  0.24726930  0.28971469    -0.12200
C183        C  0.74460404  0.28109821  0.27868162     0.10600
C184        C  0.77231366  0.28273901  0.26054221    -0.10300
C185        C  0.78477412  0.31743518  0.25192340    -0.04200
C186        C  0.77026427  0.35046322  0.25878271    -0.10300
H187        H  0.68834649  0.40827452  0.30299604     0.07900
H188        H  0.73627492  0.40955645  0.27436453     0.07900
H189        H  0.69550000  0.22009390  0.31687085     0.08100
H190        H  0.74224878  0.22113943  0.28437474     0.08100
H191        H  0.62691494  0.31421969  0.35395517     0.04500
H192        H  0.80554637  0.31879464  0.23753645     0.04500
C193        C  0.84390646  0.47583626  0.16533907    -0.01500
C194        C  0.84708270  0.44212348  0.18266107     0.07100
C195        C  0.87147718  0.41863751  0.17569526    -0.07500
C196        C  0.89246161  0.42784734  0.15142596     0.04500
C197        C  0.88906370  0.46143400  0.13324417    -0.14700
C198        C  0.86483713  0.48530256  0.14099841    -0.08000
C199        C  0.82375393  0.42850601  0.20592688     0.05500
C200        C  0.79490394  0.41805861  0.19409288    -0.09100
C201        C  0.77511619  0.39578345  0.21277129     0.00500
C202        C  0.78403205  0.38433992  0.24396648     0.00300
C203        C  0.81152917  0.39786807  0.25692269    -0.12700
C204        C  0.83154017  0.41968300  0.23805741     0.00800
C205        C  0.74759361  0.38124668  0.19814172     0.40100
C206        C  0.86088366  0.43031195  0.25124335     0.36700
C207        C  0.81930877  0.50100423  0.17213819     0.36500
C208        C  0.91653586  0.40155136  0.14557156     0.37200
N209        N  0.72564895  0.36932497  0.18641105    -0.43600
N210        N  0.88448617  0.43871175  0.26167252    -0.44000
N211        N  0.93576011  0.38037632  0.14101774    -0.41400
N212        N  0.79955130  0.52108998  0.17765940    -0.42800
H213        H  0.86190280  0.51136620  0.12782543     0.13400
H214        H  0.87360412  0.39233967  0.18877289     0.09800
H215        H  0.78902244  0.42447412  0.16927198     0.10900
H216        H  0.81859204  0.38854240  0.28073113     0.16700
C217        C  0.09260442  0.45597459  0.14219690    -0.01500
C218        C  0.08372490  0.47819269  0.16817169     0.07100
C219        C  0.05377109  0.49227476  0.16832642    -0.07500
C220        C  0.03279106  0.48413310  0.14363561     0.04500
C221        C  0.04204091  0.46289386  0.11715263    -0.14700
C222        C  0.07216444  0.44929173  0.11692500    -0.08000
C223        C  0.10467623  0.48344060  0.19638959     0.05500
C224        C  0.13498392  0.49607698  0.19119207    -0.09100
C225        C  0.15813467  0.48775220  0.21363694     0.00500
C226        C  0.15088170  0.46682063  0.24166216     0.00300
C227        C  0.11983752  0.46272557  0.25014883    -0.12700
C228        C  0.09675970  0.46956177  0.22736228     0.00800
C229        C  0.18963915  0.49595677  0.20541548     0.40100
C230        C  0.06606937  0.45682140  0.23485194     0.36700
C231        C  0.12198949  0.43777452  0.14174901     0.36500
C232        C  0.00198994  0.49786186  0.14631738     0.37200
N233        N  0.21492989  0.50267235  0.19903635    -0.43600
N234        N  0.04148860  0.44650586  0.24085482    -0.44000
N235        N  0.97723592  0.50861604  0.14887132    -0.41400
N236        N  0.14548718  0.42315226  0.14163322    -0.42800
H237        H  0.07958243  0.43222011  0.09728728     0.13400
H238        H  0.04650768  0.50905081  0.18820417     0.09800
H239        H  0.14116775  0.50858071  0.16812485     0.10900
H240        H  0.11399749  0.44733366  0.27204840     0.16700
C241        C  0.87636304  0.21223873  0.16272203    -0.01500
C242        C  0.85362660  0.23865151  0.16949989     0.07100
C243        C  0.85327639  0.27204197  0.15138015    -0.07500
C244        C  0.87435996  0.27908685  0.12653611     0.04500
C245        C  0.89677918  0.25245631  0.11912119    -0.14700
C246        C  0.89774902  0.21931783  0.13777858    -0.08000
C247        C  0.83061861  0.23379302  0.19610188     0.05500
C248        C  0.84039456  0.23660471  0.22811633    -0.09100
C249        C  0.81950959  0.24504481  0.25260454     0.00500
C250        C  0.78824233  0.25113080  0.24519363     0.00300
C251        C  0.77789998  0.24203915  0.21433198    -0.12700
C252        C  0.79878762  0.23406031  0.18975352     0.00800
C253        C  0.83138070  0.25350478  0.28402139     0.40100
C254        C  0.78729498  0.22977423  0.15751213     0.36700
C255        C  0.87742913  0.17722315  0.18024544     0.36500
C256        C  0.87302732  0.31454698  0.10960188     0.37200
N257        N  0.84090965  0.26052221  0.30914856    -0.43600
N258        N  0.77807864  0.22643982  0.13164948    -0.44000
N259        N  0.87200873  0.34297632  0.09607937    -0.41400
N260        N  0.87818962  0.14905845  0.19420687    -0.42800
H261        H  0.91462414  0.19848946  0.13226895     0.13400
H262        H  0.83644998  0.29296469  0.15687931     0.09800
H263        H  0.86471431  0.23610481  0.23344511     0.10900
H264        H  0.75407498  0.24666310  0.20813735     0.16700
C265        C  0.15008065  0.31012206  0.17427484    -0.01500
C266        C  0.12555096  0.29079685  0.18924122     0.07100
C267        C  0.12257545  0.29089217  0.22274273    -0.07500
C268        C  0.14208945  0.31297039  0.24114859     0.04500
C269        C  0.16461913  0.33529212  0.22572398    -0.14700
C270        C  0.16943840  0.33230521  0.19263674    -0.08000
C271        C  0.10018274  0.27596578  0.16988053     0.05500
C272        C  0.10258412  0.24065822  0.15681856    -0.09100
C273        C  0.08026919  0.22765370  0.13558287     0.00500
C274        C  0.05519936  0.25057132  0.12695903     0.00300
C275        C  0.05232579  0.28534353  0.14131780    -0.12700
C276        C  0.07463770  0.29821773  0.16251882     0.00800
C277        C  0.08357421  0.19057372  0.12346601     0.40100
C278        C  0.07158957  0.33501104  0.17540076     0.36700
C279        C  0.15407882  0.31020891  0.13984516     0.36500
C280        C  0.13702265  0.31478260  0.27534433     0.37200
N281        N  0.08627607  0.16081263  0.11388627    -0.43600
N282        N  0.06925417  0.36448537  0.18570075    -0.44000
N283        N  0.13307711  0.31613940  0.30277803    -0.41400
N284        N  0.15729771  0.31027593  0.11225502    -0.42800
H285        H  0.18666122  0.34974144  0.18082185     0.13400
H286        H  0.10374280  0.27580610  0.23418015     0.09800
H287        H  0.12220472  0.22357375  0.16279625     0.10900
H288        H  0.03323744  0.30317065  0.13506048     0.16700
C289        C  0.13587540  0.24079778  0.88962317    -0.01500
C290        C  0.10413779  0.23391633  0.88571073     0.07100
C291        C  0.09338958  0.22416549  0.85525045    -0.07500
C292        C  0.11398533  0.21485166  0.83087441     0.04500
C293        C  0.14591899  0.21431879  0.83721296    -0.14700
C294        C  0.15653610  0.23093809  0.86540431    -0.08000
C295        C  0.08326473  0.22814706  0.91400443     0.05500
C296        C  0.05729481  0.25039365  0.91791154    -0.09100
C297        C  0.03653830  0.24352682  0.94342748     0.00500
C298        C  0.04141095  0.21355936  0.96549468     0.00300
C299        C  0.06735844  0.19132170  0.96122582    -0.12700
C300        C  0.08788502  0.19804670  0.93581655     0.00800
C301        C  0.01129478  0.26865101  0.94707174     0.40100
C302        C  0.11299028  0.17264888  0.93185268     0.36700
C303        C  0.14788501  0.25434348  0.91953071     0.36500
C304        C  0.10175689  0.19908129  0.80186293     0.37200
N305        N  0.99126508  0.28918236  0.94974024    -0.43600
N306        N  0.13314667  0.15245463  0.92846148    -0.44000
N307        N  0.09195142  0.18597537  0.77882940    -0.41400
N308        N  0.15755035  0.26528624  0.94347370    -0.42800
H309        H  0.18090896  0.23133260  0.87049834     0.13400
H310        H  0.06902756  0.21965843  0.85165117     0.09800
H311        H  0.05332304  0.27328943  0.90108703     0.10900
H312        H  0.07142542  0.16802866  0.97762171     0.16700
C313        C  0.06851102  0.04244254  0.91272352    -0.01500
C314        C  0.09537560  0.02259453  0.90613784     0.07100
C315        C  0.09960718  0.48590760  0.92042097    -0.07500
C316        C  0.08028355  0.47439333  0.94550418     0.04500
C317        C  0.05559801  0.99785293  0.95580421    -0.14700
C318        C  0.04881553  0.02977828  0.93705824    -0.08000
C319        C  0.11833493  0.03746967  0.88311324     0.05500
C320        C  0.14594680  0.05138425  0.89542581    -0.09100
C321        C  0.16527309  0.07347882  0.87616217     0.00500
C322        C  0.15692219  0.08168786  0.84410379     0.00300
C323        C  0.13092797  0.06460648  0.83087453    -0.12700
C324        C  0.11166589  0.04225740  0.85015683     0.00800
C325        C  0.19168664  0.09089132  0.89069193     0.40100
C326        C  0.08429941  0.02637778  0.83628216     0.36700
C327        C  0.06146726  0.07702722  0.89609260     0.36500
C328        C  0.08828018  0.44041668  0.96252622     0.37200
N329        N  0.21281306  0.10501543  0.90223823    -0.43600
N330        N  0.06597830  0.50370987  0.82062135    -0.44000
N331        N  0.09490109  0.41315279  0.97597654    -0.41400
N332        N  0.05579077  0.10475735  0.88286703    -0.42800
H333        H  0.02836370  0.04561040  0.94180215     0.13400
H334        H  0.11979649  0.46985689  0.91497996     0.09800
H335        H  0.15118946  0.04743448  0.92074628     0.10900
H336        H  0.12443302  0.07115726  0.80625597     0.16700
C337        C  0.63317409  0.42453931  0.37938323    -0.01500
C338        C  0.60169052  0.42584224  0.37150449     0.07100
C339        C  0.59125914  0.40797543  0.34387302    -0.07500
C340        C  0.61085132  0.38539014  0.32647045     0.04500
C341        C  0.64158242  0.38103290  0.33636546    -0.14700
C342        C  0.65284880  0.40224315  0.36173156    -0.08000
C343        C  0.57894441  0.44077446  0.39432214     0.05500
C344        C  0.58021036  0.47838969  0.40237043    -0.09100
C345        C  0.56177604  0.49211713  0.42691375     0.00500
C346        C  0.54175133  0.46767324  0.44434790     0.00300
C347        C  0.53928695  0.43049971  0.43468619    -0.12700
C348        C  0.55750909  0.41699005  0.41003201     0.00800
C349        C  0.56400856  0.53138075  0.43325600     0.40100
C350        C  0.55470671  0.37807166  0.40242260     0.36700
C351        C  0.64523330  0.44281161  0.40730810     0.36500
C352        C  0.59827106  0.36407060  0.30047917     0.37200
N353        N  0.56587187  0.56290628  0.43807018    -0.43600
N354        N  0.55226949  0.34694708  0.39625790    -0.44000
N355        N  0.58818442  0.34676215  0.27979864    -0.41400
N356        N  0.65490046  0.45752282  0.42965493    -0.42800
H357        H  0.67633993  0.39865070  0.36964493     0.13400
H358        H  0.56721479  0.40937040  0.33739668     0.09800
H359        H  0.59616275  0.49692609  0.38983152     0.10900
H360        H  0.52378634  0.41133169  0.44713292     0.16700
C361        C  0.34644703  0.49560749  0.46009164    -0.01500
C362        C  0.34925933  0.47989775  0.42949978     0.07100
C363        C  0.37594297  0.46011204  0.42240870    -0.07500
C364        C  0.39881812  0.45415797  0.44558568     0.04500
C365        C  0.39496769  0.46754452  0.47702364    -0.14700
C366        C  0.36888701  0.48885248  0.48358329    -0.08000
C367        C  0.32398308  0.48056634  0.40526892     0.05500
C368        C  0.33061917  0.49206569  0.37348403    -0.09100
C369        C  0.31106566  0.48239861  0.34815129     0.00500
C370        C  0.28398020  0.46192782  0.35462673     0.00300
C371        C  0.27499036  0.45600066  0.38669348    -0.12700
C372        C  0.29522492  0.46353778  0.41189101     0.00800
C373        C  0.32120372  0.48898348  0.31550603     0.40100
C374        C  0.28787591  0.44798527  0.44326787     0.36700
C375        C  0.32082799  0.51881170  0.46792122     0.36500
C376        C  0.42518044  0.43278084  0.43665349     0.37200
N377        N  0.32933937  0.49405313  0.28930899    -0.43600
N378        N  0.28199223  0.43518313  0.46828588    -0.44000
N379        N  0.44632068  0.41577614  0.42930571    -0.41400
N380        N  0.30025244  0.53731886  0.47423411    -0.42800
H381        H  0.36594254  0.50028750  0.50726250     0.13400
H382        H  0.37843302  0.44804955  0.39890373     0.09800
H383        H  0.35251606  0.50531253  0.36811417     0.10900
H384        H  0.25451891  0.43948081  0.39172871     0.16700
C385        C  0.35290488  0.49069985  0.67656912    -0.01500
C386        C  0.36127582  0.03200153  0.69573147     0.07100
C387        C  0.38192666  0.05696894  0.68089350    -0.07500
C388        C  0.40019543  0.04617488  0.65520982     0.04500
C389        C  0.39810875  0.00922088  0.64390013    -0.14700
C390        C  0.37237936  0.48096323  0.65150943    -0.08000
C391        C  0.33946280  0.04691600  0.71936509     0.05500
C392        C  0.35084691  0.06133046  0.74812987    -0.09100
C393        C  0.33245226  0.08356357  0.76727959     0.00500
C394        C  0.30210304  0.09129204  0.75776917     0.00300
C395        C  0.29001354  0.07430341  0.73045778    -0.12700
C396        C  0.30850068  0.05264644  0.71101540     0.00800
C397        C  0.34577935  0.10056126  0.79519527     0.40100
C398        C  0.29622820  0.04032395  0.68077554     0.36700
C399        C  0.33098883  0.46356996  0.68881179     0.36500
C400        C  0.41959361  0.07447356  0.64039504     0.37200
N401        N  0.35642194  0.11436545  0.81750699    -0.43600
N402        N  0.28652490  0.03066242  0.65642359    -0.44000
N403        N  0.43495476  0.09755846  0.62887928    -0.41400
N404        N  0.31330576  0.44187741  0.69846136    -0.42800
H405        H  0.37042798  0.45319553  0.64202218     0.13400
H406        H  0.38284885  0.08560192  0.68862328     0.09800
H407        H  0.37469641  0.05722298  0.75448213     0.10900
H408        H  0.26695662  0.08094164  0.72262328     0.16700
C409        C  0.64041142  0.23335886  0.40969244    -0.01500
C410        C  0.60828723  0.23234046  0.40507517     0.07100
C411        C  0.59704105  0.23279902  0.37344889    -0.07500
C412        C  0.61671354  0.23985596  0.34729727     0.04500
C413        C  0.64804292  0.24823655  0.35269144    -0.14700
C414        C  0.66001485  0.24117683  0.38353572    -0.08000
C415        C  0.58634156  0.23802777  0.43224397     0.05500
C416        C  0.59009336  0.26989783  0.45091489    -0.09100
C417        C  0.56903556  0.27859021  0.47495294     0.00500
C418        C  0.54307398  0.25561008  0.48054623     0.00300
C419        C  0.53898687  0.22387869  0.46180375    -0.12700
C420        C  0.56044389  0.21482938  0.43797842     0.00800
C421        C  0.57399441  0.31206400  0.49291198     0.40100
C422        C  0.55594411  0.18107676  0.42037679     0.36700
C423        C  0.65356145  0.22920334  0.44137820     0.36500
C424        C  0.60338780  0.24518866  0.31579268     0.37200
N425        N  0.57782099  0.33887218  0.50733923    -0.43600
N426        N  0.55247571  0.15398500  0.40625425    -0.44000
N427        N  0.59263566  0.24963290  0.29059814    -0.41400
N428        N  0.66411218  0.22571717  0.46676677    -0.42800
H429        H  0.68406243  0.24692457  0.38805800     0.13400
H430        H  0.57252693  0.23145832  0.36931402     0.09800
H431        H  0.60932149  0.28859535  0.44624220     0.10900
H432        H  0.51941808  0.20567507  0.46629709     0.16700
C433        C  0.34515390  0.30687693  0.34895252    -0.01500
C434        C  0.33202427  0.28945229  0.37635107     0.07100
C435        C  0.30013961  0.28955148  0.38032705    -0.07500
C436        C  0.28173289  0.31071969  0.35949942     0.04500
C437        C  0.29548087  0.33214326  0.33448960    -0.14700
C438        C  0.32681200  0.32808209  0.32818723    -0.08000
C439        C  0.35144475  0.27773666  0.40378334     0.05500
C440        C  0.36639856  0.30555142  0.42116536    -0.09100
C441        C  0.38506171  0.29655003  0.44743524     0.00500
C442        C  0.38900052  0.25884143  0.45674929     0.00300
C443        C  0.37342899  0.23107706  0.43955886    -0.12700
C444        C  0.35480886  0.24025039  0.41320662     0.00800
C445        C  0.39880164  0.32673944  0.46488929     0.40100
C446        C  0.34011922  0.21084174  0.39563801     0.36700
C447        C  0.37775136  0.30576132  0.34326875     0.36500
C448        C  0.24941317  0.31341546  0.36637853     0.37200
N449        N  0.40955430  0.35124446  0.47867887    -0.43600
N450        N  0.32843627  0.18726414  0.38146116    -0.44000
N451        N  0.22347544  0.31557304  0.37167293    -0.41400
N452        N  0.40389451  0.30471751  0.33884940    -0.42800
H453        H  0.33742257  0.34446937  0.30895713     0.13400
H454        H  0.28998997  0.27583379  0.40126802     0.09800
H455        H  0.36327651  0.33453507  0.41420626     0.10900
H456        H  0.37625075  0.20201762  0.44632933     0.16700
C457        C  0.30629408  0.23251948  0.68823834    -0.01500
C458        C  0.33727983  0.24026684  0.69595755     0.07100
C459        C  0.34488999  0.24582532  0.72836752    -0.07500
C460        C  0.32362125  0.23749829  0.75290132     0.04500
C461        C  0.29432422  0.22326909  0.74510586    -0.14700
C462        C  0.28503571  0.22477370  0.71282896    -0.08000
C463        C  0.36219540  0.23675204  0.67136884     0.05500
C464        C  0.36135768  0.25837208  0.64287012    -0.09100
C465        C  0.38100853  0.25107799  0.61708052     0.00500
C466        C  0.40249126  0.22188127  0.61956009     0.00300
C467        C  0.40496153  0.20218246  0.64891903    -0.12700
C468        C  0.38496614  0.20906460  0.67454205     0.00800
C469        C  0.37872998  0.27415622  0.58834894     0.40100
C470        C  0.38704205  0.18556992  0.70304447     0.36700
C471        C  0.29648448  0.22762811  0.65546177     0.36500
C472        C  0.33352981  0.23870925  0.78595175     0.37200
N473        N  0.37692357  0.29272562  0.56537340    -0.43600
N474        N  0.38870414  0.16681497  0.72592128    -0.44000
N475        N  0.34139247  0.23975939  0.81247784    -0.41400
N476        N  0.28855999  0.22376193  0.62919854    -0.42800
H477        H  0.26252953  0.21406720  0.70653339     0.13400
H478        H  0.36823486  0.25331397  0.73464776     0.09800
H479        H  0.34454049  0.28023219  0.64034319     0.10900
H480        H  0.42147187  0.17995819  0.65129006     0.16700
C481        C  0.84614272  0.98235408  0.85518669    -0.01500
C482        C  0.84052754  0.97674690  0.88844946     0.07100
C483        C  0.80984319  0.97286712  0.89853741    -0.07500
C484        C  0.78541967  0.97920508  0.87712346     0.04500
C485        C  0.79130993  0.99126875  0.84517631    -0.14700
C486        C  0.82161675  0.98912950  0.83388777    -0.08000
C487        C  0.86543541  0.98009927  0.91346106     0.05500
C488        C  0.88451628  0.01201657  0.91320896    -0.09100
C489        C  0.90469199  0.01939116  0.93877424     0.00500
C490        C  0.90577312  0.99500148  0.96577495     0.00300
C491        C  0.88770291  0.96239824  0.96557629    -0.12700
C492        C  0.86815996  0.95449994  0.93959091     0.00800
C493        C  0.92241927  0.05355364  0.93783545     0.40100
C494        C  0.84900228  0.42174415  0.94291029     0.36700
C495        C  0.87694348  0.98383650  0.84262147     0.36500
C496        C  0.75462560  0.97949108  0.88975436     0.37200
N497        N  0.93657526  0.08096367  0.93723068    -0.43600
N498        N  0.83499152  0.39423407  0.94332078    -0.44000
N499        N  0.72993596  0.97979275  0.89984264    -0.41400
N500        N  0.90161327  0.98513511  0.83246837    -0.42800
H501        H  0.82660054  0.99814493  0.80939204     0.13400
H502        H  0.80481558  0.96821233  0.92381131     0.09800
H503        H  0.88260452  0.03232247  0.89369064     0.10900
H504        H  0.88690381  0.44450999  0.98855109     0.16700
C505        C  0.85670548  0.15530847  0.93678316    -0.01500
C506        C  0.83741405  0.18010688  0.91987554     0.07100
C507        C  0.84077123  0.21845281  0.92389058    -0.07500
C508        C  0.86301823  0.23235293  0.94481495     0.04500
C509        C  0.88282406  0.20752151  0.96126260    -0.14700
C510        C  0.87958963  0.16915773  0.95680857    -0.08000
C511        C  0.81425690  0.16590870  0.89731592     0.05500
C512        C  0.78819542  0.14774780  0.90986595    -0.09100
C513        C  0.76989577  0.12565507  0.89025324     0.00500
C514        C  0.77746181  0.12225752  0.85756104     0.00300
C515        C  0.80178684  0.14321749  0.84440123    -0.12700
C516        C  0.82040564  0.16484386  0.86412407     0.00800
C517        C  0.74558317  0.10348592  0.90473598     0.40100
C518        C  0.84744483  0.18244986  0.85050683     0.36700
C519        C  0.85282381  0.11553595  0.93448333     0.36500
C520        C  0.86539934  0.27212973  0.94843486     0.37200
N521        N  0.72623000  0.08543107  0.91622799    -0.43600
N522        N  0.86921084  0.19639025  0.83964082    -0.44000
N523        N  0.86710280  0.30402835  0.95129830    -0.41400
N524        N  0.84905202  0.08374401  0.93288666    -0.42800
H525        H  0.89433307  0.14991444  0.96979560     0.13400
H526        H  0.82588655  0.23743000  0.91081349     0.09800
H527        H  0.78365414  0.14841649  0.93546169     0.10900
H528        H  0.80793045  0.13988473  0.81939061     0.16700
C529        C  0.64458673  0.98976806  0.67125964    -0.01500
C530        C  0.61421657  0.97931104  0.67945711     0.07100
C531        C  0.60761718  0.97045693  0.71181078    -0.07500
C532        C  0.62910600  0.97781079  0.73610559     0.04500
C533        C  0.65778792  0.99406865  0.72816657    -0.14700
C534        C  0.66621808  0.99629973  0.69558508    -0.08000
C535        C  0.58849183  0.98382789  0.65578066     0.05500
C536        C  0.58828275  0.96371393  0.62719051    -0.09100
C537        C  0.56662042  0.97112080  0.60286314     0.00500
C538        C  0.54466070  0.99937546  0.60678042     0.00300
C539        C  0.54386811  0.01800897  0.63603246    -0.12700
C540        C  0.56542700  0.01062252  0.66031122     0.00800
C541        C  0.56597001  0.45008437  0.57556934     0.40100
C542        C  0.56420865  0.03235579  0.68905030     0.36700
C543        C  0.65301641  0.99882830  0.63845955     0.36500
C544        C  0.61963083  0.97400953  0.76922942     0.37200
N545        N  0.56565074  0.43114363  0.55344371    -0.43600
N546        N  0.56317291  0.04976265  0.71207568    -0.44000
N547        N  0.61207314  0.97110514  0.79581141    -0.41400
N548        N  0.65968875  0.00615065  0.61215705    -0.42800
H549        H  0.68810360  0.00893991  0.68912577     0.13400
H550        H  0.58465721  0.96133734  0.71837691     0.09800
H551        H  0.60563961  0.44663376  0.62380445     0.10900
H552        H  0.52697678  0.03945673  0.63953301     0.16700
C553        C  0.59858965  0.15456038  0.74040508    -0.01500
C554        C  0.61000577  0.17384699  0.71307026     0.07100
C555        C  0.64127742  0.17216579  0.70570067    -0.07500
C556        C  0.66042786  0.14799583  0.72288987     0.04500
C557        C  0.64808819  0.12516989  0.74773662    -0.14700
C558        C  0.61765224  0.13006798  0.75742251    -0.08000
C559        C  0.58891744  0.18768565  0.68789065     0.05500
C560        C  0.57594324  0.22300677  0.68995000    -0.09100
C561        C  0.55603800  0.23611069  0.66588191     0.00500
C562        C  0.54870313  0.21333126  0.63963206     0.00300
C563        C  0.56124369  0.17769576  0.63813884    -0.12700
C564        C  0.58147326  0.16493406  0.66177156     0.00800
C565        C  0.54272651  0.27242670  0.66910433     0.40100
C566        C  0.59478556  0.12856062  0.65854081     0.36700
C567        C  0.56681427  0.15708744  0.74960216     0.36500
C568        C  0.69178362  0.14426222  0.71253008     0.37200
N569        N  0.53196746  0.30149338  0.67163674    -0.43600
N570        N  0.60580167  0.09964449  0.65597852    -0.44000
N571        N  0.71694629  0.14130166  0.70432493    -0.41400
N572        N  0.54138097  0.15937510  0.75705703    -0.42800
H573        H  0.60819179  0.11261995  0.77662943     0.13400
H574        H  0.65005176  0.18714496  0.68469594     0.09800
H575        H  0.58145364  0.24027655  0.71023648     0.10900
H576        H  0.55585785  0.16014778  0.61797739     0.16700
C577        C  0.67324319  0.52742842  0.74539119    -0.10300
C578        C  0.65866581  0.56128540  0.73949728    -0.04200
C579        C  0.66850861  0.59403733  0.75329280    -0.10300
C580        C  0.69326418  0.59359176  0.77475913     0.10600
C581        C  0.70836905  0.55950498  0.78184189    -0.02100
C582        C  0.69847750  0.52600516  0.76713692     0.10400
C583        C  0.71398788  0.49282069  0.77481717    -0.12100
C584        C  0.73871795  0.49249379  0.79663463    -0.12100
C585        C  0.74896086  0.52543251  0.81108452     0.10400
C586        C  0.73354126  0.55927264  0.80345215    -0.02100
C587        C  0.70304665  0.62641972  0.78935047    -0.12200
C588        C  0.72747671  0.62615479  0.81058080    -0.12200
C589        C  0.74301727  0.59308766  0.81776511     0.10600
C590        C  0.76777905  0.59295731  0.83921026    -0.10300
C591        C  0.78322206  0.56023297  0.84580459    -0.04200
C592        C  0.77414573  0.52635937  0.83292885    -0.10300
H593        H  0.70690472  0.46693405  0.76410415     0.07900
H594        H  0.74997847  0.46639175  0.80198426     0.07900
H595        H  0.69174740  0.65262743  0.78455236     0.08100
H596        H  0.73416440  0.65218580  0.82129637     0.08100
H597        H  0.63966260  0.56247289  0.72260505     0.04500
H598        H  0.80229032  0.56094488  0.86262230     0.04500
O599        O  0.53426188  0.75881880  0.59797559    -0.80400
O600        O  0.43268466  0.76640269  0.48834237    -0.65100
O601        O  0.47876654  0.76040951  0.56577484    -1.11700
C602        C  0.46682784  0.63130267  0.55560029     1.06500
O603        O  0.40313806  0.71585858  0.49585096    -0.78300
O604        O  0.40808291  0.70880377  0.56103606    -0.65800
Ni605      Ni  0.51474375  0.79170596  0.56765318     1.34900
C606        C  0.42077922  0.70986289  0.58847331     0.85300
O607        O  0.45083671  0.81707684  0.53097452    -0.78800
O608        O  0.49956182  0.83074112  0.53917974    -0.89100
C609        C  0.40996267  0.74602632  0.48078879     0.84800
O610        O  0.53291196  0.76691925  0.53280395    -0.67300
O611        O  0.43929526  0.64232243  0.55289694    -0.86600
C612        C  0.52138630  0.76386837  0.50493885     0.85700
C613        C  0.47207248  0.84090976  0.53504346     1.07200
H614        H  0.47274176  0.70427994  0.50701262     0.39000
O615        O  0.46045612  0.71124172  0.52515626    -1.09200
O616        O  0.44892630  0.70116623  0.59258205    -0.65900
Ni617      Ni  0.48404211  0.70728207  0.56344372     1.26300
O618        O  0.49274319  0.76877812  0.49927119    -0.66100
O619        O  0.48880763  0.65449737  0.55855223    -0.78400
C620        C  0.52966776  0.72659444  0.61028542     0.85000
O621        O  0.50903274  0.70425267  0.60075716    -0.65600
Ni622      Ni  0.42331371  0.68216074  0.52541622     1.27400
Ni623      Ni  0.45613619  0.76417828  0.52677762     1.26100
H624        H  0.46561753  0.76657977  0.58349352     0.39600
O625        O  0.40724678  0.96627436  0.60215997    -0.80400
O626        O  0.50094142  0.95577139  0.48526811    -0.65100
O627        O  0.46167353  0.96107078  0.56666467    -1.11700
C628        C  0.47316300  0.59079021  0.55384803     1.06500
O629        O  0.52947323  0.00750622  0.48654177    -0.78300
O630        O  0.53219693  0.51408613  0.55204496    -0.65800
Ni631      Ni  0.42495683  0.93165735  0.57248388     1.34900
C632        C  0.52199565  0.51152838  0.58062725     0.85300
O633        O  0.48595654  0.90505613  0.53030135    -0.78800
O634        O  0.43842263  0.89087058  0.54576522    -0.89100
C635        C  0.52202708  0.97674994  0.47383936     0.84800
O636        O  0.40504833  0.95601176  0.53719394    -0.67300
O637        O  0.50010334  0.58038056  0.54690554    -0.86600
C638        C  0.41474675  0.95761965  0.50841032     0.85700
C639        C  0.46499526  0.88119967  0.53657447     1.07200
H640        H  0.46278131  0.51887060  0.50448277     0.39000
O641        O  0.47595704  0.01098992  0.52320215    -1.09200
O642        O  0.49410569  0.51879105  0.58740628    -0.65900
Ni643      Ni  0.45651981  0.51425625  0.56195031     1.26300
O644        O  0.44286696  0.95230929  0.50146050    -0.66100
O645        O  0.45153948  0.56725651  0.55798192    -0.78400
C646        C  0.41287171  0.49516733  0.61066248     0.85000
O647        O  0.43539783  0.51533118  0.60168279    -0.65600
Ni648      Ni  0.51336585  0.54178759  0.51791217     1.27400
Ni649      Ni  0.48084861  0.95785296  0.52572207     1.26100
H650        H  0.47594645  0.95400919  0.58310255     0.39600
C651        C  0.27982704  0.68698342  0.76079605    -0.10300
C652        C  0.29542595  0.65370874  0.75635118    -0.04200
C653        C  0.28262030  0.61932867  0.76484815    -0.10300
C654        C  0.25396613  0.61763111  0.78013936     0.10600
C655        C  0.23827643  0.65110183  0.78660806    -0.02100
C656        C  0.25106409  0.68609096  0.77678756     0.10400
C657        C  0.23484557  0.71866505  0.78342854    -0.12100
C658        C  0.20673784  0.71696195  0.79991216    -0.12100
C659        C  0.19356821  0.68256932  0.80942832     0.10400
C660        C  0.20940627  0.64930318  0.80219069    -0.02100
C661        C  0.24073073  0.58320649  0.78904597    -0.12200
C662        C  0.21254622  0.58143986  0.80429302    -0.12200
C663        C  0.19672033  0.61403751  0.81115090     0.10600
C664        C  0.16862096  0.61222934  0.82732415    -0.10300
C665        C  0.15316533  0.64462614  0.83399592    -0.04200
C666        C  0.16492769  0.67982671  0.82572586    -0.10300
H667        H  0.24413808  0.74566857  0.77637871     0.07900
H668        H  0.19516432  0.74269066  0.80487634     0.07900
H669        H  0.25224739  0.55730615  0.78457328     0.08100
H670        H  0.20322106  0.55425972  0.81074411     0.08100
H671        H  0.31684920  0.65430048  0.74307137     0.04500
H672        H  0.13215234  0.64232554  0.84792283     0.04500
O673        O  0.89852153  0.74488235  0.00461571    -0.80400
O674        O  0.00575545  0.75378103  0.10341534    -0.65100
O675        O  0.95869265  0.75691352  0.02635504    -1.11700
C676        C  0.97583846  0.62506143  0.03035919     1.06500
O677        O  0.04068109  0.71901796  0.08052456    -0.78300
O678        O  0.03383937  0.69388154  0.02113961    -0.65800
Ni679      Ni  0.92138065  0.78454431  0.02394630     1.34900
C680        C  0.02104320  0.70432426  0.99517478     0.85300
O681        O  0.98277307  0.81081381  0.06813853    -0.78800
O682        O  0.94023858  0.82820323  0.04176043    -0.89100
C683        C  0.03232480  0.73979656  0.10310660     0.84800
O684        O  0.90514816  0.76943560  0.06460725    -0.67300
O685        O  0.00061914  0.63366776  0.04475740    -0.86600
C686        C  0.91711562  0.75821482  0.09079684     0.85700
C687        C  0.96458216  0.83580192  0.05728123     1.07200
H688        H  0.96791320  0.69271530  0.07764229     0.39000
O689        O  0.98055889  0.70381243  0.06090333    -1.09200
O690        O  0.99207250  0.70765245  0.99261845    -0.65900
Ni691      Ni  0.95747046  0.70358163  0.02211350     1.26300
O692        O  0.94585124  0.75279587  0.09403131    -0.66100
O693        O  0.95658628  0.64936785  0.02016917    -0.78400
C694        C  0.90657778  0.72169107  0.98371811     0.85000
O695        O  0.93248801  0.70599627  0.98467516    -0.65600
Ni696      Ni  0.01875617  0.67803552  0.06209894     1.27400
Ni697      Ni  0.98134323  0.75685339  0.06556403     1.26100
H698        H  0.97192790  0.76755306  0.00991540     0.39600
O699        O  0.03906897  0.95688044  0.99810951    -0.80400
O700        O  0.93106683  0.95329641  0.10023356    -0.65100
O701        O  0.98110576  0.95451136  0.02562317    -1.11700
C702        C  0.96881871  0.58448680  0.02839677     1.06500
O703        O  0.90092540  0.00068380  0.08662367    -0.78300
O704        O  0.91015174  0.50562567  0.02353733    -0.65800
Ni705      Ni  0.01749055  0.92459933  0.02789548     1.34900
C706        C  0.92384456  0.50415970  0.99668981     0.85300
O707        O  0.95161235  0.89980038  0.06203417    -0.78800
O708        O  0.00051496  0.88600837  0.05630942    -0.89100
C709        C  0.90730493  0.97254725  0.10450511     0.84800
O710        O  0.03344245  0.95115721  0.06327349    -0.67300
O711        O  0.94114546  0.57325799  0.03101680    -0.82200
C712        C  0.02028024  0.95522082  0.09017398     0.85700
C713        C  0.97272222  0.87593679  0.05963956     1.07200
H714        H  0.97348154  0.51472956  0.08025641     0.39000
O715        O  0.96034250  0.00631123  0.06165727    -1.09200
O716        O  0.95249782  0.51145241  0.99387923    -0.65900
Ni717      Ni  0.98647213  0.50808619  0.02460921     1.26300
O718        O  0.99118419  0.95121920  0.09353192    -0.66100
O719        O  0.99073724  0.56143908  0.02673888    -0.78400
C720        C  0.03397682  0.48669828  0.98113855     0.85000
O721        O  0.01239852  0.50868102  0.98788661    -0.65600
Ni722      Ni  0.92432457  0.53388318  0.05909311     1.27400
Ni723      Ni  0.95646558  0.95310779  0.06331078     1.26100
H724        H  0.96893291  0.94639966  0.00762987     0.39600
C725        C  0.27733036  0.86654978  0.32568045    -0.10300
C726        C  0.28589671  0.89858588  0.34162887    -0.04200
C727        C  0.26912440  0.93135157  0.33899471    -0.10300
C728        C  0.24361942  0.93311589  0.31799415     0.10600
C729        C  0.23506176  0.90078551  0.30091848    -0.02100
C730        C  0.25176798  0.86724142  0.30513837     0.10400
C731        C  0.24257068  0.83528876  0.28883532    -0.12100
C732        C  0.21726469  0.83600070  0.26867590    -0.12100
C733        C  0.20057191  0.86879998  0.26393375     0.10400
C734        C  0.20945301  0.90164805  0.28002297    -0.02100
C735        C  0.22654469  0.96579474  0.31350256    -0.12200
C736        C  0.20165797  0.96691714  0.29215275    -0.12200
C737        C  0.19276350  0.93517001  0.27520625     0.10600
C738        C  0.16760167  0.93532280  0.25359345    -0.10300
C739        C  0.15951415  0.90258966  0.23810186    -0.04200
C740        C  0.17525166  0.86968705  0.24320737    -0.10300
H741        H  0.25496598  0.80947811  0.29151591     0.07900
H742        H  0.21101629  0.81066185  0.25658068     0.07900
H743        H  0.23263016  0.99078327  0.32620013     0.08100
H744        H  0.18927126  0.99268827  0.28909334     0.08100
H745        H  0.30515799  0.89733052  0.35817232     0.04500
H746        H  0.14025386  0.90266625  0.22152917     0.04500
C747        C  0.65470624  0.84256611  0.32481053    -0.10300
C748        C  0.64438178  0.80848288  0.33717337    -0.04200
C749        C  0.65953962  0.77521581  0.33173280    -0.10300
C750        C  0.68624484  0.77567556  0.31227666     0.10600
C751        C  0.69766936  0.81042227  0.30000677    -0.02100
C752        C  0.68205623  0.84405406  0.30668244     0.10400
C753        C  0.69403072  0.87806636  0.29491061    -0.12100
C754        C  0.72105926  0.87937955  0.27717874    -0.12100
C755        C  0.73670929  0.84665867  0.27008476     0.10400
C756        C  0.72486422  0.81169301  0.28122238    -0.02100
C757        C  0.70161581  0.74287338  0.30446231    -0.12200
C758        C  0.72772983  0.74402225  0.28473976    -0.12200
C759        C  0.73989165  0.77810688  0.27312812     0.10600
C760        C  0.76678944  0.78016085  0.25386157    -0.10300
C761        C  0.77845848  0.81500174  0.24442330    -0.04200
C762        C  0.76384195  0.84787390  0.25180207    -0.10300
H763        H  0.68258588  0.90399837  0.29939302     0.07900
H764        H  0.72956508  0.90630199  0.26885928     0.07900
H765        H  0.69319429  0.71608834  0.31321704     0.08100
H766        H  0.73870402  0.71811762  0.27904193     0.08100
H767        H  0.62435327  0.80805365  0.35267625     0.04500
H768        H  0.79878716  0.81654828  0.22936826     0.04500
C769        C  0.83794437  0.97484545  0.15956985    -0.01500
C770        C  0.84137178  0.94213491  0.17825842     0.07100
C771        C  0.86719985  0.92002531  0.17384171    -0.07500
C772        C  0.88920146  0.92936621  0.15053882     0.04500
C773        C  0.88560240  0.96187478  0.13095413    -0.14700
C774        C  0.86000959  0.98459230  0.13637919    -0.08000
C775        C  0.81693635  0.92773761  0.20000714     0.05500
C776        C  0.79006501  0.91355604  0.18618269    -0.09100
C777        C  0.77010598  0.89071591  0.20418845     0.00500
C778        C  0.77691396  0.88204726  0.23658848     0.00300
C779        C  0.80218138  0.89917110  0.25124051    -0.12700
C780        C  0.82219354  0.92203561  0.23316937     0.00800
C781        C  0.74460794  0.87318288  0.18812051     0.40100
C782        C  0.84887636  0.93769303  0.24855678     0.36700
C783        C  0.81184208  0.99859508  0.16367576     0.36500
C784        C  0.91446001  0.90414423  0.14693250     0.37200
N785        N  0.72424018  0.85893525  0.17529769    -0.43600
N786        N  0.87024537  0.95043475  0.26078878    -0.44000
N787        N  0.93459778  0.88378972  0.14409584    -0.41400
N788        N  0.79088047  0.01755510  0.16703050    -0.42800
H789        H  0.85678973  0.00983454  0.12211305     0.13400
H790        H  0.86959804  0.89450283  0.18798683     0.09800
H791        H  0.78600487  0.91779488  0.16065606     0.10900
H792        H  0.80761463  0.89226309  0.27607606     0.16700
C793        C  0.08988608  0.95353184  0.14500304    -0.01500
C794        C  0.08163718  0.97749178  0.17002122     0.07100
C795        C  0.05238008  0.99355831  0.16910594    -0.07500
C796        C  0.03159419  0.98605034  0.14405223     0.04500
C797        C  0.04032091  0.96308147  0.11849953    -0.14700
C798        C  0.06965127  0.94722955  0.11948412    -0.08000
C799        C  0.10270767  0.98331240  0.19805900     0.05500
C800        C  0.13325743  0.99460214  0.19235974    -0.09100
C801        C  0.15625442  0.98682427  0.21510115     0.00500
C802        C  0.14863718  0.96783995  0.24404887     0.00300
C803        C  0.11751852  0.96499911  0.25258495    -0.12700
C804        C  0.09455321  0.97129819  0.22950098     0.00800
C805        C  0.18791559  0.99230908  0.20598950     0.40100
C806        C  0.06360722  0.95990458  0.23736045     0.36700
C807        C  0.11840399  0.93341462  0.14572484     0.36500
C808        C  0.00166795  0.00259284  0.14513932     0.37200
N809        N  0.21333460  0.99652817  0.19876896    -0.43600
N810        N  0.03882777  0.95063055  0.24367464    -0.44000
N811        N  0.97762513  0.01573870  0.14637794    -0.41400
N812        N  0.14119833  0.91725867  0.14646920    -0.42800
H813        H  0.07657962  0.92885068  0.10055089     0.13400
H814        H  0.04559756  0.01169587  0.18825115     0.09800
H815        H  0.13968682  0.00539364  0.16875638     0.10900
H816        H  0.11139580  0.95094147  0.27503744     0.16700
C817        C  0.87507949  0.71093734  0.16136987    -0.01500
C818        C  0.85116610  0.73622733  0.16684670     0.07100
C819        C  0.85057017  0.76958157  0.14870702    -0.07500
C820        C  0.87247138  0.77756998  0.12492268     0.04500
C821        C  0.89591270  0.75187606  0.11855236    -0.14700
C822        C  0.89722284  0.71889605  0.13737784    -0.08000
C823        C  0.82716191  0.73049558  0.19225790     0.05500
C824        C  0.83555575  0.73297644  0.22472108    -0.09100
C825        C  0.81366103  0.74150443  0.24815918     0.00500
C826        C  0.78296975  0.74842215  0.23912775     0.00300
C827        C  0.77383551  0.73949689  0.20782041    -0.12700
C828        C  0.79564726  0.73086056  0.18437377     0.00800
C829        C  0.82387791  0.74837692  0.28048058     0.40100
C830        C  0.78551824  0.72588837  0.15170649     0.36700
C831        C  0.87667772  0.67619808  0.17925410     0.36500
C832        C  0.87082749  0.81301232  0.10797878     0.37200
N833        N  0.83201673  0.75382080  0.30643580    -0.43600
N834        N  0.77742733  0.72185060  0.12551862    -0.44000
N835        N  0.86957034  0.84143456  0.09447104    -0.41400
N836        N  0.87792120  0.64828333  0.19354686    -0.42800
H837        H  0.91494583  0.69882948  0.13267829     0.13400
H838        H  0.83289225  0.78975483  0.15337325     0.09800
H839        H  0.85959255  0.73208265  0.23126990     0.10900
H840        H  0.75035526  0.74449506  0.20048545     0.16700
C841        C  0.14910134  0.81330925  0.17422283    -0.01500
C842        C  0.12581659  0.79162211  0.18902244     0.07100
C843        C  0.12349235  0.78995030  0.22258040    -0.07500
C844        C  0.14225047  0.81250552  0.24136450     0.04500
C845        C  0.16342431  0.83700534  0.22627864    -0.14700
C846        C  0.16773019  0.83593942  0.19297843    -0.08000
C847        C  0.10054329  0.77642028  0.16977816     0.05500
C848        C  0.10356141  0.74167417  0.15584065    -0.09100
C849        C  0.08095824  0.72832304  0.13510057     0.00500
C850        C  0.05506321  0.75048098  0.12769816     0.00300
C851        C  0.05164619  0.78460947  0.14297641    -0.12700
C852        C  0.07413368  0.79768130  0.16385554     0.00800
C853        C  0.08481398  0.69161572  0.12235046     0.40100
C854        C  0.07018661  0.83359703  0.17814004     0.36700
C855        C  0.15247895  0.81519427  0.13971849     0.36500
C856        C  0.13761866  0.81254641  0.27569853     0.37200
N857        N  0.08796213  0.66212563  0.11233298    -0.43600
N858        N  0.06709081  0.86232538  0.18964572    -0.44000
N859        N  0.13404568  0.81257078  0.30323951    -0.41400
N860        N  0.15524980  0.81671449  0.11207542    -0.42800
H861        H  0.18394095  0.85501274  0.18144812     0.13400
H862        H  0.10556894  0.77312826  0.23386168     0.09800
H863        H  0.12378363  0.72525105  0.16086639     0.10900
H864        H  0.03190458  0.80179634  0.13777869     0.16700
C865        C  0.13777721  0.73642172  0.89227142    -0.01500
C866        C  0.10588108  0.73055327  0.88829178     0.07100
C867        C  0.09492303  0.72196196  0.85763042    -0.07500
C868        C  0.11525555  0.71267394  0.83304949     0.04500
C869        C  0.14715465  0.71106671  0.83927756    -0.14700
C870        C  0.15817744  0.72640904  0.86785649    -0.08000
C871        C  0.08458409  0.72563942  0.91637325     0.05500
C872        C  0.05720082  0.74588882  0.91782102    -0.09100
C873        C  0.03574397  0.73928620  0.94271869     0.00500
C874        C  0.04155701  0.71192209  0.96691839     0.00300
C875        C  0.06874711  0.69146611  0.96498476    -0.12700
C876        C  0.08980007  0.69760418  0.94005038     0.00800
C877        C  0.00846082  0.76159189  0.94317573     0.40100
C878        C  0.11590295  0.67329970  0.93856264     0.36700
C879        C  0.15015258  0.74926244  0.92228359     0.36500
C880        C  0.10263643  0.69799651  0.80378524     0.37200
N881        N  0.98661562  0.77955152  0.94336085    -0.43600
N882        N  0.13684149  0.65389734  0.93740294    -0.44000
N883        N  0.09249612  0.68574410  0.78055126    -0.41400
N884        N  0.16008440  0.75944802  0.94637078    -0.42800
H885        H  0.18255502  0.72588473  0.87289512     0.13400
H886        H  0.07048179  0.71836819  0.85390339     0.09800
H887        H  0.05254040  0.76684237  0.89938064     0.10900
H888        H  0.07340310  0.66982754  0.98284212     0.16700
C889        C  0.06806871  0.54003224  0.91012498    -0.01500
C890        C  0.09394123  0.51865199  0.90295303     0.07100
C891        C  0.10212915  0.99049401  0.92419420    -0.07500
C892        C  0.08267730  0.97791393  0.94887580     0.04500
C893        C  0.05460310  0.49635965  0.95368943    -0.14700
C894        C  0.04863297  0.52872473  0.93519249    -0.08000
C895        C  0.11764390  0.53310917  0.88075588     0.05500
C896        C  0.14412374  0.54857201  0.89425184    -0.09100
C897        C  0.16365158  0.57100136  0.87560973     0.00500
C898        C  0.15649302  0.57815609  0.84307953     0.00300
C899        C  0.13189755  0.55938126  0.82873960    -0.12700
C900        C  0.11250782  0.53650630  0.84742784     0.00800
C901        C  0.18890211  0.58980135  0.89107069     0.40100
C902        C  0.08663372  0.51845565  0.83250844     0.36700
C903        C  0.06192558  0.57471112  0.89322396     0.36500
C904        C  0.09195276  0.94517894  0.96695847     0.37200
N905        N  0.20909124  0.60503888  0.90334996    -0.43600
N906        N  0.06231747  0.01358855  0.82531781    -0.44000
N907        N  0.09959516  0.91897630  0.98135725    -0.41400
N908        N  0.05702873  0.60248699  0.87970173    -0.42800
H909        H  0.02910726  0.54585945  0.94068255     0.13400
H910        H  0.12312052  0.97569850  0.91941020     0.09800
H911        H  0.14818507  0.54555429  0.91989318     0.10900
H912        H  0.12649960  0.56491374  0.80366401     0.16700
C913        C  0.62931408  0.92101232  0.37611729    -0.01500
C914        C  0.59727404  0.91968172  0.37109727     0.07100
C915        C  0.58570193  0.89939556  0.34525546    -0.07500
C916        C  0.60501252  0.87729987  0.32699221     0.04500
C917        C  0.63660308  0.87542884  0.33434237    -0.14700
C918        C  0.64865285  0.89881041  0.35786474    -0.08000
C919        C  0.57551597  0.93509150  0.39491157     0.05500
C920        C  0.57601879  0.97325583  0.40120250    -0.09100
C921        C  0.55826398  0.98784120  0.42597545     0.00500
C922        C  0.53935313  0.96391263  0.44519258     0.00300
C923        C  0.53779733  0.92597293  0.43759178    -0.12700
C924        C  0.55559988  0.91149481  0.41295285     0.00800
C925        C  0.56001316  0.02745564  0.43077402     0.40100
C926        C  0.55402967  0.87190235  0.40776326     0.36700
C927        C  0.64263191  0.94244640  0.40161300     0.36500
C928        C  0.59153492  0.85406212  0.30275389     0.37200
N929        N  0.56154777  0.05923791  0.43443721    -0.43600
N930        N  0.55264522  0.84021487  0.40356310    -0.44000
N931        N  0.58079743  0.83519119  0.28349154    -0.41400
N932        N  0.65327108  0.95985224  0.42193395    -0.42800
H933        H  0.67280073  0.89731299  0.36387045     0.13400
H934        H  0.56122009  0.89884801  0.34076315     0.09800
H935        H  0.59082736  0.99164143  0.38704416     0.10900
H936        H  0.52339583  0.90705013  0.45168848     0.16700
C937        C  0.34414207  0.99435830  0.46525778    -0.01500
C938        C  0.34560935  0.97661687  0.43545156     0.07100
C939        C  0.37136918  0.95505770  0.42861720    -0.07500
C940        C  0.39478541  0.94974781  0.45132310     0.04500
C941        C  0.39219037  0.96517912  0.48219615    -0.14700
C942        C  0.36689534  0.98789189  0.48851361    -0.08000
C943        C  0.31992298  0.97766244  0.41172795     0.05500
C944        C  0.32584831  0.98983264  0.37999086    -0.09100
C945        C  0.30528736  0.98157912  0.35512693     0.00500
C946        C  0.27864545  0.96035392  0.36182417     0.00300
C947        C  0.27053289  0.95336974  0.39404184    -0.12700
C948        C  0.29112056  0.96112770  0.41893003     0.00800
C949        C  0.31351450  0.99124609  0.32241371     0.40100
C950        C  0.28371492  0.94739999  0.45088247     0.36700
C951        C  0.31989314  0.01996402  0.47213794     0.36500
C952        C  0.42067793  0.92754202  0.44239669     0.37200
N953        N  0.31988439  0.99914933  0.29614514    -0.43600
N954        N  0.27770242  0.93641401  0.47647126    -0.44000
N955        N  0.44151378  0.90999773  0.43504370    -0.41400
N956        N  0.30051962  0.04066920  0.47743691    -0.42800
H957        H  0.36502884  0.00099629  0.51163855     0.13400
H958        H  0.37286174  0.94158835  0.40560912     0.09800
H959        H  0.34760533  0.00322768  0.37427616     0.10900
H960        H  0.25022391  0.93668193  0.39935738     0.16700
C961        C  0.35989004  0.99495470  0.68558176    -0.01500
C962        C  0.35484199  0.52663559  0.68909968     0.07100
C963        C  0.37671912  0.55193752  0.67685295    -0.07500
C964        C  0.39609260  0.54251594  0.65171791     0.04500
C965        C  0.39391789  0.50661619  0.63838722    -0.14700
C966        C  0.37820216  0.98386895  0.65994011    -0.08000
C967        C  0.33308240  0.54030732  0.71320303     0.05500
C968        C  0.34482086  0.55307605  0.74241149    -0.09100
C969        C  0.32740434  0.57614313  0.76168318     0.00500
C970        C  0.29773921  0.58631197  0.75179671     0.00300
C971        C  0.28491705  0.57051137  0.72431458    -0.12700
C972        C  0.30239681  0.54781250  0.70481935     0.00800
C973        C  0.34109024  0.59127980  0.79020976     0.40100
C974        C  0.28945153  0.53608219  0.67469554     0.36700
C975        C  0.33956667  0.96805047  0.70087575     0.36500
C976        C  0.41691761  0.57104343  0.63968255     0.37200
N977        N  0.35202233  0.60347121  0.81307837    -0.43600
N978        N  0.27906218  0.52668481  0.65056721    -0.44000
N979        N  0.43344913  0.59418484  0.63027838    -0.41400
N980        N  0.32322241  0.94652026  0.71310925    -0.42800
H981        H  0.37655839  0.95531551  0.65221706     0.13400
H982        H  0.37795246  0.57978775  0.68635637     0.09800
H983        H  0.36840732  0.54732582  0.74888149     0.10900
H984        H  0.26217609  0.57867367  0.71654849     0.16700
C985        C  0.64041504  0.73132488  0.40843677    -0.01500
C986        C  0.60829029  0.72850390  0.40411825     0.07100
C987        C  0.59694008  0.72608706  0.37261355    -0.07500
C988        C  0.61626855  0.73243157  0.34606814     0.04500
C989        C  0.64719742  0.74298944  0.35089446    -0.14700
C990        C  0.65960397  0.73824315  0.38182188    -0.08000
C991        C  0.58626437  0.73546168  0.43098287     0.05500
C992        C  0.58991074  0.76825044  0.44848688    -0.09100
C993        C  0.56885419  0.77801106  0.47218425     0.00500
C994        C  0.54273115  0.75546551  0.47829499     0.00300
C995        C  0.53871810  0.72285630  0.46068254    -0.12700
C996        C  0.56035618  0.71251959  0.43747768     0.00800
C997        C  0.57423723  0.81187898  0.48945978     0.40100
C998        C  0.55610519  0.67761392  0.42152415     0.36700
C999        C  0.65393988  0.73046415  0.44009964     0.36500
C1000       C  0.60280186  0.73463395  0.31440902     0.37200
N1001       N  0.57861371  0.83897570  0.50332661    -0.43600
N1002       N  0.55280771  0.64956827  0.40878264    -0.44000
N1003       N  0.59194325  0.73641604  0.28905885    -0.41400
N1004       N  0.66490424  0.72983859  0.46542602    -0.42800
H1005       H  0.68345531  0.74555493  0.38586151     0.13400
H1006       H  0.57248447  0.72321732  0.36865910     0.09800
H1007       H  0.60912852  0.78677134  0.44325586     0.10900
H1008       H  0.51916402  0.70483147  0.46576593     0.16700
C1009       C  0.34515928  0.80895983  0.34593141    -0.01500
C1010       C  0.33360480  0.78855759  0.37267430     0.07100
C1011       C  0.30185124  0.78636786  0.37761001    -0.07500
C1012       C  0.28200324  0.80804619  0.35884086     0.04500
C1013       C  0.29410870  0.83243151  0.33496733    -0.14700
C1014       C  0.32534351  0.83083111  0.32730304    -0.08000
C1015       C  0.35409771  0.77634719  0.39914484     0.05500
C1016       C  0.37001100  0.80391960  0.41594140    -0.09100
C1017       C  0.38762870  0.79488433  0.44297343     0.00500
C1018       C  0.39053103  0.75729461  0.45303523     0.00300
C1019       C  0.37418895  0.72973740  0.43635521    -0.12700
C1020       C  0.35569029  0.73905444  0.40992676     0.00800
C1021       C  0.40023873  0.82495792  0.46140126     0.40100
C1022       C  0.33831508  0.71008165  0.39450261     0.36700
C1023       C  0.37752633  0.81005786  0.33877943     0.36500
C1024       C  0.24983752  0.80804177  0.36690591     0.37200
N1025       N  0.40991523  0.84885793  0.47669741    -0.43600
N1026       N  0.32411539  0.68695415  0.38232892    -0.44000
N1027       N  0.22402427  0.80798133  0.37322318    -0.41400
N1028       N  0.40346175  0.81085888  0.33302221    -0.42800
H1029       H  0.33466444  0.84941103  0.30880831     0.13400
H1030       H  0.29283530  0.77048897  0.39800958     0.09800
H1031       H  0.36761675  0.83290006  0.40861285     0.10900
H1032       H  0.37573174  0.70079993  0.44402110     0.16700
C1033       C  0.30459695  0.72949817  0.68515659    -0.01500
C1034       C  0.33579087  0.73574109  0.69281686     0.07100
C1035       C  0.34377398  0.74012996  0.72526515    -0.07500
C1036       C  0.32236130  0.73242505  0.74978800     0.04500
C1037       C  0.29280159  0.71907737  0.74198211    -0.14700
C1038       C  0.28336755  0.72156513  0.70975712    -0.08000
C1039       C  0.36044273  0.73225304  0.66800712     0.05500
C1040       C  0.36070980  0.75586908  0.64066718    -0.09100
C1041       C  0.38078324  0.74974141  0.61497256     0.00500
C1042       C  0.40163814  0.71986787  0.61652856     0.00300
C1043       C  0.40262968  0.69761783  0.64460936    -0.12700
C1044       C  0.38207831  0.70316678  0.66997709     0.00800
C1045       C  0.37961175  0.77462248  0.58728785     0.40100
C1046       C  0.38230256  0.67694167  0.69677020     0.36700
C1047       C  0.29440306  0.72685569  0.65228471     0.36500
C1048       C  0.33206617  0.73415241  0.78286429     0.37200
N1049       N  0.37869639  0.79455737  0.56510348    -0.43600
N1050       N  0.38246161  0.65583515  0.71816406    -0.44000
N1051       N  0.33974489  0.73598131  0.80940456    -0.41400
N1052       N  0.28616610  0.72498194  0.62593251    -0.42800
H1053       H  0.26060343  0.71176024  0.70341263     0.13400
H1054       H  0.36731871  0.74666484  0.73150856     0.09800
H1055       H  0.34454066  0.77852037  0.63898979     0.10900
H1056       H  0.41840907  0.67454007  0.64604463     0.16700
C1057       C  0.84590448  0.48274027  0.85718049    -0.01500
C1058       C  0.83994816  0.47829593  0.89046944     0.07100
C1059       C  0.80914732  0.47646441  0.90047006    -0.07500
C1060       C  0.78508191  0.48353697  0.87878850     0.04500
C1061       C  0.79152756  0.49427851  0.84662257    -0.14700
C1062       C  0.82178051  0.49044356  0.83561329    -0.08000
C1063       C  0.86485886  0.48097919  0.91549009     0.05500
C1064       C  0.88502488  0.51187082  0.91465628    -0.09100
C1065       C  0.90512250  0.51914949  0.94026451     0.00500
C1066       C  0.90540128  0.49530628  0.96764397     0.00300
C1067       C  0.88638692  0.46348963  0.96794876    -0.12700
C1068       C  0.86665532  0.45590822  0.94206577     0.00800
C1069       C  0.92356901  0.55276366  0.93896246     0.40100
C1070       C  0.85143316  0.91965403  0.94003636     0.36700
C1071       C  0.87677934  0.48193781  0.84486732     0.36500
C1072       C  0.75429637  0.48596674  0.89119964     0.37200
N1073       N  0.93824323  0.57977356  0.93813625    -0.43600
N1074       N  0.83808611  0.89167012  0.94016300    -0.44000
N1075       N  0.72960086  0.48804662  0.90103943    -0.41400
N1076       N  0.90156351  0.48133603  0.83505897    -0.42800
H1077       H  0.82718559  0.49854433  0.81099734     0.13400
H1078       H  0.80388810  0.47281114  0.92579677     0.09800
H1079       H  0.88413190  0.53142707  0.89451221     0.10900
H1080       H  0.88876894  0.94306805  0.98590781     0.16700
C1081       C  0.86029264  0.66057470  0.92950402    -0.01500
C1082       C  0.83903123  0.68572732  0.91613854     0.07100
C1083       C  0.84060424  0.72330247  0.92392659    -0.07500
C1084       C  0.86277377  0.73590672  0.94557694     0.04500
C1085       C  0.88404563  0.71054863  0.95923035    -0.14700
C1086       C  0.88283703  0.67314468  0.95049320    -0.08000
C1087       C  0.81464120  0.67211176  0.89476413     0.05500
C1088       C  0.79057284  0.65142530  0.90877050    -0.09100
C1089       C  0.77269129  0.62777003  0.89018231     0.00500
C1090       C  0.77824682  0.62578841  0.85691268     0.00300
C1091       C  0.80013666  0.64943712  0.84239156    -0.12700
C1092       C  0.81870190  0.67226613  0.86118826     0.00800
C1093       C  0.75145179  0.60248168  0.90621456     0.40100
C1094       C  0.84392933  0.69216552  0.84610754     0.36700
C1095       C  0.85843496  0.62143602  0.92282133     0.36500
C1096       C  0.86332716  0.77495876  0.95298527     0.37200
N1097       N  0.73475206  0.58184847  0.91905626    -0.43600
N1098       N  0.86428869  0.70785732  0.83401591    -0.44000
N1099       N  0.86359551  0.80626722  0.95887534    -0.41400
N1100       N  0.85600459  0.59015536  0.91741692    -0.42800
H1101       H  0.89876858  0.65338464  0.96103621     0.13400
H1102       H  0.82421524  0.74257062  0.91351261     0.09800
H1103       H  0.78784506  0.65091373  0.93468241     0.10900
H1104       H  0.80476180  0.64727169  0.81690544     0.16700
C1105       C  0.64536510  0.49472350  0.66913198    -0.01500
C1106       C  0.61509212  0.48496060  0.67830157     0.07100
C1107       C  0.60941573  0.47561075  0.71073937    -0.07500
C1108       C  0.63205280  0.48118182  0.73428459     0.04500
C1109       C  0.66080300  0.49674078  0.72559365    -0.14700
C1110       C  0.66808214  0.49946454  0.69269620    -0.08000
C1111       C  0.58885462  0.48870794  0.65516820     0.05500
C1112       C  0.58829522  0.46755454  0.62718879    -0.09100
C1113       C  0.56602177  0.47357102  0.60327888     0.00500
C1114       C  0.54373445  0.50143271  0.60693730     0.00300
C1115       C  0.54325085  0.52120358  0.63564913    -0.12700
C1116       C  0.56549529  0.51517914  0.65959590     0.00800
C1117       C  0.56677567  0.94850002  0.57461193     0.40100
C1118       C  0.56470315  0.53792556  0.68775755     0.36700
C1119       C  0.65276584  0.50482063  0.63625661     0.36500
C1120       C  0.62396157  0.47586188  0.76767258     0.37200
N1121       N  0.56674562  0.93010785  0.55213494    -0.43600
N1122       N  0.56401312  0.55621964  0.71027509    -0.44000
N1123       N  0.61750296  0.47150091  0.79445440    -0.41400
N1124       N  0.65863687  0.51307280  0.60993013    -0.42800
H1125       H  0.68999987  0.51156027  0.68560788     0.13400
H1126       H  0.58656001  0.46683394  0.71800460     0.09800
H1127       H  0.60540224  0.94255289  0.62367714     0.10900
H1128       H  0.52617344  0.54250045  0.63886281     0.16700
C1129       C  0.60342868  0.65668386  0.73370365    -0.01500
C1130       C  0.61499585  0.67543212  0.70619196     0.07100
C1131       C  0.64625495  0.67355630  0.69882915    -0.07500
C1132       C  0.66538697  0.64996822  0.71664946     0.04500
C1133       C  0.65302183  0.62824165  0.74219182    -0.14700
C1134       C  0.62254888  0.63323456  0.75157517    -0.08000
C1135       C  0.59381123  0.68940499  0.68131904     0.05500
C1136       C  0.58147727  0.72500851  0.68355920    -0.09100
C1137       C  0.55999351  0.73761936  0.66094815     0.00500
C1138       C  0.55047087  0.71402843  0.63600174     0.00300
C1139       C  0.56258740  0.67820998  0.63423089    -0.12700
C1140       C  0.58435113  0.66591515  0.65643763     0.00800
C1141       C  0.54729095  0.77422155  0.66451103     0.40100
C1142       C  0.59689119  0.62914725  0.65317881     0.36700
C1143       C  0.57131359  0.65799422  0.74184110     0.36500
C1144       C  0.69666242  0.64544207  0.70626207     0.37200
N1145       N  0.53704999  0.80351242  0.66741991    -0.43600
N1146       N  0.60722356  0.59987088  0.65052257    -0.44000
N1147       N  0.72173434  0.64173210  0.69800749    -0.41400
N1148       N  0.54553340  0.65908660  0.74816159    -0.42800
H1149       H  0.61302681  0.61621786  0.77103560     0.13400
H1150       H  0.65502485  0.68790046  0.67750593     0.09800
H1151       H  0.58846492  0.74272111  0.70306993     0.10900
H1152       H  0.55564009  0.66014359  0.61493269     0.16700
loop_ 
_geom_bond_atom_site_label_1 
_geom_bond_atom_site_label_2 
_geom_bond_distance 
_geom_bond_site_symmetry_2 
_ccdc_geom_bond_type 
C1            C2   1.398       .  A
C1            C6   1.424       .  A
C1          C533   1.489   1_545  S
C2            C3   1.388       .  A
C2           H21   1.087       .  S
C3            C4   1.404       .  A
C3          C557   1.479       .  S
C4            C5   1.424       .  A
C4           C11   1.402       .  A
C5            C6   1.424       .  A
C5           C10   1.420       .  A
C6            C7   1.409   1_545  A
C7            C8   1.409       .  A
C7           H17   1.083       .  S
C8            C9   1.408   1_565  A
C8           H18   1.083       .  S
C9           C10   1.427       .  A
C9           C16   1.427       .  A
C10          C13   1.422       .  A
C11          C12   1.385       .  A
C11          H19   1.083       .  S
C12          C13   1.402       .  A
C12          H20   1.083       .  S
C13          C14   1.401       .  A
C14          C15   1.384       .  A
C14         C514   1.472       .  S
C15          C16   1.394       .  A
C15          H22   1.088       .  S
C16         C485   1.491   1_545  S
O23         Ni29   1.924       .  S
O23          C44   1.272       .  A
O24         Ni47   1.900       .  S
O24          C33   1.270       .  A
O25         Ni29   1.925       .  S
O25         Ni47   1.905       .  S
O25         Ni41   1.936       .  S
O25          H48   0.966       .  S
C26          C52   1.494       .  S
C26          O43   1.272       .  A
C26          O35   1.276       .  A
O27         Ni46   1.930       .  S
O27          C33   1.275       .  A
O28         Ni46   1.908       .  S
O28          C30   1.269       .  A
Ni29         O32   1.947       .  S
Ni29         O34   1.901       .  S
C30         C466   1.493       .  S
C30          O40   1.280       .  A
O31         Ni47   1.926       .  S
O31          C37   1.269       .  A
O32          C37   1.270       .  A
C33         C442   1.482       .  S
O34          C36   1.272       .  A
O35         Ni46   1.953       .  S
C36         C418   1.487       .  S
C36          O42   1.285       .  A
C37          C63   1.489       .  S
H38          O39   0.966       .  S
O39         Ni47   1.915       .  S
O39         Ni41   1.899       .  S
O39         Ni46   1.918       .  S
O40         Ni41   1.963       .  S
Ni41         O45   1.897       .  S
Ni41         O43   1.929       .  S
O42         Ni47   1.967       .  S
C44         C562   1.474       .  S
C44          O45   1.268       .  A
O49         Ni55   1.926       .  S
O49         C646   1.273       .  A
O50         Ni73   1.902       .  S
O50          C59   1.270       .  A
O51         Ni55   1.922       .  S
O51         Ni73   1.904       .  S
O51        Ni643   1.922       .  S
O51          H74   0.958       .  S
C52          O69   1.269       .  A
C52          O61   1.277       .  A
O53        Ni648   1.930       .  S
O53          C59   1.273       .  A
O54         Ni72   1.913       .  S
O54          C56   1.271       .  A
Ni55         O58   1.947       .  S
Ni55         O60   1.902       .  S
C56         C538   1.491   1_545  S
C56          O66   1.279       .  A
O57         Ni73   1.929       .  S
O57          C63   1.273       .  A
O58          C63   1.273       .  A
C59         C346   1.494       .  S
O60          C62   1.269       .  A
O61         Ni72   1.962       .  S
C62         C365   1.491       .  S
C62          O68   1.279       .  A
H64         O641   0.970       .  S
O65         Ni73   1.929       .  S
O65        Ni643   1.904       .  S
O65        Ni648   1.922       .  S
O65         H640   0.969       .  S
O66         Ni67   1.954       .  S
Ni67         O71   1.894       .  S
Ni67         O69   1.921       .  S
Ni67        O627   1.921   1_545  S
Ni67        O641   1.905       .  S
O68         Ni73   1.954       .  S
C70         C389   1.493   1_565  S
C70          O71   1.265   1_565  A
C70         O625   1.276       .  A
Ni72        O629   1.937       .  S
Ni72        O641   1.924       .  S
C75          C76   1.398       .  A
C75          C80   1.420       .  A
C75         C461   1.487       .  S
C76          C77   1.390       .  A
C76          H95   1.087       .  S
C77          C78   1.408       .  A
C77         C394   1.484       .  S
C78          C79   1.424       .  A
C78          C85   1.403       .  A
C79          C80   1.422       .  A
C79          C84   1.420       .  A
C80          C81   1.408       .  A
C81          C82   1.405       .  A
C81          H91   1.083       .  S
C82          C83   1.407       .  A
C82          H92   1.083       .  S
C83          C84   1.427       .  A
C83          C90   1.425       .  A
C84          C87   1.421       .  A
C85          C86   1.388       .  A
C85          H93   1.083       .  S
C86          C87   1.403       .  A
C86          H94   1.083       .  S
C87          C88   1.403       .  A
C88          C89   1.387       .  A
C88         C322   1.473       .  S
C89          C90   1.397       .  A
C89          H96   1.087       .  S
C90         C293   1.495       .  S
O97        Ni103   1.926       .  S
O97         C118   1.272   1_554  A
O98        Ni121   1.900   1_455  S
O98         C107   1.268       .  A
O99        Ni103   1.918       .  S
O99        Ni121   1.905       .  S
O99        Ni115   1.927       .  S
O99         H122   0.966       .  S
C100        C126   1.493       .  S
C100        O117   1.282       .  A
C100        O109   1.276   1_655  A
O101       Ni120   1.926       .  S
O101        C107   1.272       .  A
O102       Ni120   1.908       .  S
O102        C104   1.269   1_554  A
Ni103       O106   1.930       .  S
Ni103       O108   1.906       .  S
C104        C298   1.500       .  S
C104        O114   1.277   1_455  A
O105       Ni121   1.944       .  S
O105        C111   1.280       .  A
O106        C111   1.274       .  A
C107        C274   1.479       .  S
O108        C110   1.269       .  A
O109       Ni120   1.932       .  S
C110        C245   1.496       .  S
C110        O116   1.278       .  A
C111        C137   1.488       .  S
H112        O113   0.966       .  S
O113       Ni121   1.920       .  S
O113       Ni115   1.901       .  S
O113       Ni120   1.918   1_655  S
O114       Ni115   1.954   1_556  S
Ni115       O119   1.899   1_554  S
Ni115       O117   1.950       .  S
O116       Ni121   1.955       .  S
C118        C509   1.471       .  S
C118        O119   1.269       .  A
O123       Ni129   1.915   1_556  S
O123        C720   1.270       .  A
O124       Ni147   1.889       .  S
O124        C133   1.266       .  A
O125       Ni129   1.926   1_655  S
O125       Ni147   1.899       .  S
O125       Ni717   1.931       .  S
O125        H148   0.966       .  S
C126        O143   1.274       .  A
C126        O135   1.275       .  A
O127       Ni722   1.932       .  S
O127        C133   1.275       .  A
O128       Ni146   1.913       .  S
O128        C130   1.270   1_554  A
Ni129       O132   1.945       .  S
Ni129       O134   1.900       .  S
C130        C490   1.493   1_545  S
C130        O140   1.280       .  A
O131       Ni147   1.927       .  S
O131        C137   1.270       .  A
O132        C137   1.269   1_455  A
C133        C197   1.490       .  S
O134        C136   1.270       .  A
O135       Ni146   1.957       .  S
C136        C221   1.499       .  S
C136        O142   1.283   1_455  A
H138        O715   0.965       .  S
O139       Ni147   1.919       .  S
O139       Ni717   1.901       .  S
O139       Ni722   1.925       .  S
O139        H714   0.965       .  S
O140       Ni141   1.963   1_556  S
Ni141       O145   1.895   1_654  S
Ni141       O143   1.927       .  S
Ni141       O701   1.930   1_545  S
Ni141       O715   1.900       .  S
O142       Ni147   1.968       .  S
C144        C317   1.488       .  S
C144        O145   1.269   1_565  A
C144        O699   1.271       .  A
Ni146       O703   1.934       .  S
Ni146       O715   1.925       .  S
C149        C150   1.390       .  A
C149        C154   1.406       .  A
C149        C437   1.480       .  S
C150        C151   1.396       .  A
C150        H169   1.087       .  S
C151        C152   1.414       .  A
C151        C370   1.480       .  S
C152        C153   1.421       .  A
C152        C159   1.407       .  A
C153        C154   1.423       .  A
C153        C158   1.415       .  A
C154        C155   1.402       .  A
C155        C156   1.388       .  A
C155        H165   1.083       .  S
C156        C157   1.403       .  A
C156        H166   1.083       .  S
C157        C158   1.421       .  A
C157        C164   1.402       .  A
C158        C161   1.425       .  A
C159        C160   1.401       .  A
C159        H167   1.083       .  S
C160        C161   1.406       .  A
C160        H168   1.083       .  S
C161        C162   1.418       .  A
C162        C163   1.397       .  A
C162        C226   1.487       .  S
C163        C164   1.388       .  A
C163        H170   1.087       .  S
C164        C269   1.472       .  S
C171        C172   1.387       .  A
C171        C176   1.408       .  A
C171        C341   1.484       .  S
C172        C173   1.397       .  A
C172        H191   1.087       .  S
C173        C174   1.424       .  A
C173        C413   1.491       .  S
C174        C175   1.425       .  A
C174        C181   1.409       .  A
C175        C176   1.426       .  A
C175        C180   1.421       .  A
C176        C177   1.402       .  A
C177        C178   1.389       .  A
C177        H187   1.083       .  S
C178        C179   1.403       .  A
C178        H188   1.083       .  S
C179        C180   1.422       .  A
C179        C186   1.405       .  A
C180        C183   1.428       .  A
C181        C182   1.408       .  A
C181        H189   1.083       .  S
C182        C183   1.407       .  A
C182        H190   1.083       .  S
C183        C184   1.426       .  A
C184        C185   1.395       .  A
C184        C250   1.494       .  S
C185        C186   1.387       .  A
C185        H192   1.087       .  S
C186        C202   1.476       .  S
C193        C194   1.405       .  A
C193        C198   1.399       .  A
C193        C207   1.444       .  S
C194        C195   1.401       .  A
C194        C199   1.478       .  S
C195        C196   1.396       .  A
C195        H214   1.085       .  S
C196        C197   1.420       .  A
C196        C208   1.445       .  S
C197        C198   1.411       .  A
C198        H213   1.084       .  S
C199        C200   1.402       .  A
C199        C204   1.410       .  A
C200        C201   1.397       .  A
C200        H215   1.085       .  S
C201        C202   1.409       .  A
C201        C205   1.444       .  S
C202        C203   1.402       .  A
C203        C204   1.398       .  A
C203        H216   1.085       .  S
C204        C206   1.444       .  S
C205        N209   1.157       .  T
C206        N210   1.157       .  T
C207        N212   1.157       .  T
C208        N211   1.158       .  T
C217        C218   1.415       .  A
C217        C222   1.402       .  A
C217        C231   1.446       .  S
C218        C219   1.407       .  A
C218        C223   1.502       .  S
C219        C220   1.409       .  A
C219        H238   1.084       .  S
C220        C221   1.416       .  A
C220        C232   1.442       .  S
C221        C222   1.408       .  A
C222        H237   1.085       .  S
C223        C224   1.409       .  A
C223        C228   1.414       .  A
C224        C225   1.406       .  A
C224        H239   1.084       .  S
C225        C226   1.409       .  A
C225        C229   1.443       .  S
C226        C227   1.406       .  A
C227        C228   1.403       .  A
C227        H240   1.085       .  S
C228        C230   1.443       .  S
C229        N233   1.157       .  T
C230        N234   1.157       .  T
C231        N236   1.158       .  T
C232        N235   1.157   1_455  T
C241        C242   1.414       .  A
C241        C246   1.414       .  A
C241        C255   1.442       .  S
C242        C243   1.404       .  A
C242        C247   1.502       .  S
C243        C244   1.402       .  A
C243        H262   1.085       .  S
C244        C245   1.415       .  A
C244        C256   1.445       .  S
C245        C246   1.409       .  A
C246        H261   1.084       .  S
C247        C248   1.404       .  A
C247        C252   1.414       .  A
C248        C249   1.408       .  A
C248        H263   1.084       .  S
C249        C250   1.417       .  A
C249        C253   1.444       .  S
C250        C251   1.405       .  A
C251        C252   1.407       .  A
C251        H264   1.085       .  S
C252        C254   1.443       .  S
C253        N257   1.157       .  T
C254        N258   1.157       .  T
C255        N260   1.157       .  T
C256        N259   1.157       .  T
C265        C266   1.408       .  A
C265        C270   1.395       .  A
C265        C279   1.444       .  S
C266        C267   1.401       .  A
C266        C271   1.471       .  S
C267        C268   1.398       .  A
C267        H286   1.085       .  S
C268        C269   1.409       .  A
C268        C280   1.444       .  S
C269        C270   1.400       .  A
C270        H285   1.085       .  S
C271        C272   1.397       .  A
C271        C276   1.409       .  A
C272        C273   1.398       .  A
C272        H287   1.085       .  S
C273        C274   1.418       .  A
C273        C277   1.444       .  S
C274        C275   1.404       .  A
C275        C276   1.396       .  A
C275        H288   1.085       .  S
C276        C278   1.446       .  S
C277        N281   1.157       .  T
C278        N282   1.157       .  T
C279        N284   1.157       .  T
C280        N283   1.157       .  T
C289        C290   1.414       .  A
C289        C294   1.407       .  A
C289        C303   1.443       .  S
C290        C291   1.402       .  A
C290        C295   1.499       .  S
C291        C292   1.405       .  A
C291        H310   1.085       .  S
C292        C293   1.419       .  A
C292        C304   1.445       .  S
C293        C294   1.405       .  A
C294        H309   1.085       .  S
C295        C296   1.406       .  A
C295        C300   1.413       .  A
C296        C297   1.413       .  A
C296        H311   1.084       .  S
C297        C298   1.418       .  A
C297        C301   1.442       .  S
C298        C299   1.407       .  A
C299        C300   1.402       .  A
C299        H312   1.085       .  S
C300        C302   1.446       .  S
C301        N305   1.157   1_455  T
C302        N306   1.157       .  T
C303        N308   1.157       .  T
C304        N307   1.157       .  T
C313        C314   1.409       .  A
C313        C318   1.395       .  A
C313        C327   1.446       .  S
C314        C891   1.397   1_545  A
C314        C319   1.475       .  S
C315        C316   1.396       .  A
C315        C890   1.394       .  A
C315        H334   1.085       .  S
C316        C893   1.424       .  A
C316        C328   1.445       .  S
C317        C318   1.408   1_565  A
C317        C892   1.422       .  A
C318        H333   1.084       .  S
C319        C320   1.401       .  A
C319        C324   1.409       .  A
C320        C321   1.395       .  A
C320        H335   1.085       .  S
C321        C322   1.409       .  A
C321        C325   1.445       .  S
C322        C323   1.402       .  A
C323        C324   1.398       .  A
C323        H336   1.085       .  S
C324        C326   1.444       .  S
C325        N329   1.157       .  T
C326        N906   1.157       .  T
C327        N332   1.157       .  T
C328        N331   1.157       .  T
N330        C902   1.157       .  T
C337        C338   1.413       .  A
C337        C342   1.401       .  A
C337        C351   1.444       .  S
C338        C339   1.403       .  A
C338        C343   1.487       .  S
C339        C340   1.399       .  A
C339        H358   1.085       .  S
C340        C341   1.412       .  A
C340        C352   1.444       .  S
C341        C342   1.402       .  A
C342        H357   1.085       .  S
C343        C344   1.401       .  A
C343        C348   1.412       .  A
C344        C345   1.403       .  A
C344        H359   1.085       .  S
C345        C346   1.421       .  A
C345        C349   1.444       .  S
C346        C347   1.407       .  A
C347        C348   1.398       .  A
C347        H360   1.085       .  S
C348        C350   1.445       .  S
C349        N353   1.157       .  T
C350        N354   1.157       .  T
C351        N356   1.157       .  T
C352        N355   1.157       .  T
C361        C362   1.410       .  A
C361        C366   1.403       .  A
C361        C375   1.444       .  S
C362        C363   1.406       .  A
C362        C367   1.494       .  S
C363        C364   1.403       .  A
C363        H382   1.085       .  S
C364        C365   1.415       .  A
C364        C376   1.444       .  S
C365        C366   1.409       .  A
C366        H381   1.085       .  S
C367        C368   1.407       .  A
C367        C372   1.415       .  A
C368        C369   1.403       .  A
C368        H383   1.085       .  S
C369        C370   1.409       .  A
C369        C373   1.443       .  S
C370        C371   1.403       .  A
C371        C372   1.400       .  A
C371        H384   1.086       .  S
C372        C374   1.444       .  S
C373        N377   1.157       .  T
C374        N378   1.157       .  T
C375        N380   1.157       .  T
C376        N379   1.157       .  T
C385        C390   1.399       .  A
C385        C962   1.406       .  A
C385        C399   1.444       .  S
C386        C387   1.400       .  A
C386        C961   1.407   1_545  A
C386        C391   1.483       .  S
C387        C388   1.399       .  A
C387        H406   1.086       .  S
C388        C389   1.421       .  A
C388        C400   1.445       .  S
C389        C966   1.410   1_545  A
C390        C965   1.412       .  A
C390        H405   1.084       .  S
C391        C392   1.404       .  A
C391        C396   1.411       .  A
C392        C393   1.401       .  A
C392        H407   1.085       .  S
C393        C394   1.411       .  A
C393        C397   1.444       .  S
C394        C395   1.402       .  A
C395        C396   1.398       .  A
C395        H408   1.085       .  S
C396        C398   1.444       .  S
C397        N401   1.157       .  T
C398        N402   1.157       .  T
C399        N404   1.157       .  T
C400        N403   1.157       .  T
C409        C410   1.415       .  A
C409        C414   1.407       .  A
C409        C423   1.443       .  S
C410        C411   1.404       .  A
C410        C415   1.502       .  S
C411        C412   1.404       .  A
C411        H430   1.084       .  S
C412        C413   1.416       .  A
C412        C424   1.444       .  S
C413        C414   1.405       .  A
C414        H429   1.085       .  S
C415        C416   1.407       .  A
C415        C420   1.415       .  A
C416        C417   1.402       .  A
C416        H431   1.085       .  S
C417        C418   1.412       .  A
C417        C421   1.445       .  S
C418        C419   1.406       .  A
C419        C420   1.410       .  A
C419        H432   1.084       .  S
C420        C422   1.443       .  S
C421        N425   1.157       .  T
C422        N426   1.157       .  T
C423        N428   1.157       .  T
C424        N427   1.157       .  T
C433        C434   1.409       .  A
C433        C438   1.397       .  A
C433        C447   1.444       .  S
C434        C435   1.402       .  A
C434        C439   1.478       .  S
C435        C436   1.400       .  A
C435        H454   1.085       .  S
C436        C437   1.412       .  A
C436        C448   1.444       .  S
C437        C438   1.402       .  A
C438        H453   1.085       .  S
C439        C440   1.402       .  A
C439        C444   1.405       .  A
C440        C441   1.397       .  A
C440        H455   1.085       .  S
C441        C442   1.414       .  A
C441        C445   1.444       .  S
C442        C443   1.409       .  A
C443        C444   1.400       .  A
C443        H456   1.084       .  S
C444        C446   1.443       .  S
C445        N449   1.157       .  T
C446        N450   1.157       .  T
C447        N452   1.157       .  T
C448        N451   1.157       .  T
C457        C458   1.416       .  A
C457        C462   1.404       .  A
C457        C471   1.443       .  S
C458        C459   1.407       .  A
C458        C463   1.502       .  S
C459        C460   1.406       .  A
C459        H478   1.084       .  S
C460        C461   1.412       .  A
C460        C472   1.443       .  S
C461        C462   1.403       .  A
C462        H477   1.085       .  S
C463        C464   1.405       .  A
C463        C468   1.418       .  A
C464        C465   1.406       .  A
C464        H479   1.085       .  S
C465        C466   1.417       .  A
C465        C469   1.445       .  S
C466        C467   1.404       .  A
C467        C468   1.407       .  A
C467        H480   1.085       .  S
C468        C470   1.445       .  S
C469        N473   1.157       .  T
C470        N474   1.157       .  T
C471        N476   1.157       .  T
C472        N475   1.157       .  T
C481        C482   1.416       .  A
C481        C486   1.409       .  A
C481        C495   1.443       .  S
C482        C483   1.409       .  A
C482        C487   1.510       .  S
C483        C484   1.406       .  A
C483        H502   1.084       .  S
C484        C485   1.413       .  A
C484        C496   1.444       .  S
C485        C486   1.408       .  A
C486        H501   1.085       .  S
C487        C488   1.411   1_565  A
C487        C492   1.415       .  A
C488        C489   1.409       .  A
C488        H503   1.084       .  S
C489        C490   1.411   1_545  A
C489        C493   1.445       .  S
C490        C491   1.406       .  A
C491        C492   1.409       .  A
C491       H1080   1.085       .  S
C492       C1070   1.443       .  S
C493        N497   1.157       .  T
C494       C1068   1.443       .  S
C494        N498   1.157       .  T
C495        N500   1.157       .  T
C496        N499   1.157       .  T
H504       C1067   1.085       .  S
C505        C506   1.410       .  A
C505        C510   1.395       .  A
C505        C519   1.444       .  S
C506        C507   1.399       .  A
C506        C511   1.474       .  S
C507        C508   1.399       .  A
C507        H526   1.085       .  S
C508        C509   1.415       .  A
C508        C520   1.444       .  S
C509        C510   1.401       .  A
C510        H525   1.085       .  S
C511        C512   1.401       .  A
C511        C516   1.409       .  A
C512        C513   1.396       .  A
C512        H527   1.085       .  S
C513        C514   1.409       .  A
C513        C517   1.445       .  S
C514        C515   1.400       .  A
C515        C516   1.397       .  A
C515        H528   1.085       .  S
C516        C518   1.444       .  S
C517        N521   1.157       .  T
C518        N522   1.157       .  T
C519        N524   1.157       .  T
C520        N523   1.157       .  T
C529        C530   1.414       .  A
C529        C534   1.406       .  A
C529        C543   1.444       .  S
C530        C531   1.406       .  A
C530        C535   1.501       .  S
C531        C532   1.406       .  A
C531        H550   1.084       .  S
C532        C533   1.412       .  A
C532        C544   1.443       .  S
C533        C534   1.406       .  A
C534        H549   1.085   1_565  S
C535        C536   1.406       .  A
C535        C540   1.416   1_565  A
C536        C537   1.408       .  A
C536       H1127   1.084       .  S
C537        C538   1.416       .  A
C537       C1117   1.445       .  S
C538        C539   1.403   1_565  A
C539        C540   1.403       .  A
C539        H552   1.085       .  S
C540        C542   1.445       .  S
C541       C1113   1.444       .  S
C541        N545   1.157       .  T
C542        N546   1.157       .  T
C543        N548   1.157   1_565  T
C544        N547   1.157       .  T
H551       C1112   1.084       .  S
C553        C554   1.408       .  A
C553        C558   1.399       .  A
C553        C567   1.443       .  S
C554        C555   1.401       .  A
C554        C559   1.476       .  S
C555        C556   1.398       .  A
C555        H574   1.085       .  S
C556        C557   1.410       .  A
C556        C568   1.444       .  S
C557        C558   1.403       .  A
C558        H573   1.085       .  S
C559        C560   1.400       .  A
C559        C564   1.411       .  A
C560        C561   1.402       .  A
C560        H575   1.084       .  S
C561        C562   1.414       .  A
C561        C565   1.444       .  S
C562        C563   1.401       .  A
C563        C564   1.395       .  A
C563        H576   1.085       .  S
C564        C566   1.446       .  S
C565        N569   1.157       .  T
C566        N570   1.157       .  T
C567        N572   1.157       .  T
C568        N571   1.157       .  T
C577        C578   1.397       .  A
C577        C582   1.426       .  A
C577       C1109   1.489       .  S
C578        C579   1.385       .  A
C578        H597   1.087       .  S
C579        C580   1.401       .  A
C579       C1133   1.475       .  S
C580        C581   1.423       .  A
C580        C587   1.402       .  A
C581        C582   1.426       .  A
C581        C586   1.419       .  A
C582        C583   1.409       .  A
C583        C584   1.410       .  A
C583        H593   1.083       .  S
C584        C585   1.408       .  A
C584        H594   1.083       .  S
C585        C586   1.426       .  A
C585        C592   1.427       .  A
C586        C589   1.423       .  A
C587        C588   1.384       .  A
C587        H595   1.083       .  S
C588        C589   1.402       .  A
C588        H596   1.083       .  S
C589        C590   1.401       .  A
C590        C591   1.384       .  A
C590       C1090   1.474       .  S
C591        C592   1.395       .  A
C591        H598   1.087       .  S
C592       C1061   1.490       .  S
O599       Ni605   1.916       .  S
O599        C620   1.271       .  A
O600       Ni623   1.899       .  S
O600        C609   1.270       .  A
O601       Ni605   1.925       .  S
O601       Ni623   1.902       .  S
O601       Ni617   1.931       .  S
O601        H624   0.966       .  S
C602        C628   1.489       .  S
C602        O619   1.272       .  A
C602        O611   1.274       .  A
O603       Ni622   1.927       .  S
O603        C609   1.274       .  A
O604       Ni622   1.907       .  S
O604        C606   1.270       .  A
Ni605       O608   1.939       .  S
Ni605       O610   1.898       .  S
C606       C1042   1.489       .  S
C606        O616   1.281       .  A
O607       Ni623   1.930       .  S
O607        C613   1.269       .  A
O608        C613   1.269       .  A
C609       C1018   1.484       .  S
O610        C612   1.270       .  A
O611       Ni622   1.948       .  S
C612        C994   1.487       .  S
C612        O618   1.285       .  A
C613        C639   1.487       .  S
H614        O615   0.966       .  S
O615       Ni623   1.917       .  S
O615       Ni617   1.900       .  S
O615       Ni622   1.920       .  S
O616       Ni617   1.963       .  S
Ni617       O621   1.899       .  S
Ni617       O619   1.927       .  S
O618       Ni623   1.970       .  S
C620       C1138   1.470       .  S
C620        O621   1.269       .  A
O625       Ni631   1.940       .  S
O626       Ni649   1.903       .  S
O626        C635   1.270       .  A
O627       Ni631   1.923       .  S
O627       Ni649   1.906       .  S
O627        H650   0.957       .  S
C628        O645   1.270       .  A
C628        O637   1.273       .  A
O629        C635   1.275   1_545  A
O630       Ni648   1.908       .  S
O630        C632   1.272       .  A
Ni631       O634   1.956       .  S
Ni631       O636   1.907       .  S
C632       C1114   1.490       .  S
C632        O642   1.281       .  A
O633       Ni649   1.919       .  S
O633        C639   1.271       .  A
O634        C639   1.276       .  A
C635        C922   1.497       .  S
O636        C638   1.271       .  A
O637       Ni648   1.952       .  S
C638        C941   1.492       .  S
C638        O644   1.279       .  A
O641       Ni649   1.925   1_545  S
O642       Ni643   1.959       .  S
Ni643       O647   1.896       .  S
Ni643       O645   1.924       .  S
O644       Ni649   1.951       .  S
C646        C965   1.489       .  S
C646        O647   1.267       .  A
C651        C652   1.399       .  A
C651        C656   1.421       .  A
C651       C1037   1.488       .  S
C652        C653   1.390       .  A
C652        H671   1.086       .  S
C653        C654   1.404       .  A
C653        C970   1.478       .  S
C654        C655   1.422       .  A
C654        C661   1.403       .  A
C655        C656   1.423       .  A
C655        C660   1.418       .  A
C656        C657   1.408       .  A
C657        C658   1.406       .  A
C657        H667   1.083       .  S
C658        C659   1.407       .  A
C658        H668   1.083       .  S
C659        C660   1.426       .  A
C659        C666   1.424       .  A
C660        C663   1.421       .  A
C661        C662   1.385       .  A
C661        H669   1.083       .  S
C662        C663   1.402       .  A
C662        H670   1.083       .  S
C663        C664   1.400       .  A
C664        C665   1.386       .  A
C664        C898   1.471       .  S
C665        C666   1.397       .  A
C665        H672   1.087       .  S
C666        C869   1.493       .  S
O673       Ni679   1.922       .  S
O673        C694   1.271   1_554  A
O674       Ni697   1.903   1_455  S
O674        C683   1.269       .  A
O675       Ni679   1.918       .  S
O675       Ni697   1.907       .  S
O675       Ni691   1.930       .  S
O675        H698   0.966       .  S
C676        C702   1.491       .  S
C676        O693   1.284       .  A
C676        O685   1.275   1_655  A
O677       Ni696   1.922       .  S
O677        C683   1.270       .  A
O678       Ni696   1.902       .  S
O678        C680   1.268   1_554  A
Ni679       O682   1.927       .  S
Ni679       O684   1.902       .  S
C680        C874   1.498       .  S
C680        O690   1.276   1_455  A
O681       Ni697   1.946       .  S
O681        C687   1.280       .  A
O682        C687   1.273       .  A
C683        C850   1.479       .  S
O684        C686   1.268       .  A
O685       Ni696   1.927       .  S
C686        C821   1.493       .  S
C686        O692   1.278       .  A
C687        C713   1.488       .  S
H688        O689   0.966       .  S
O689       Ni697   1.921       .  S
O689       Ni691   1.903       .  S
O689       Ni696   1.916   1_655  S
O690       Ni691   1.950   1_556  S
Ni691       O695   1.902   1_554  S
Ni691       O693   1.953       .  S
O692       Ni697   1.954       .  S
C694       C1085   1.475       .  S
C694        O695   1.270       .  A
O699       Ni705   1.920   1_556  S
O700       Ni723   1.896       .  S
O700        C709   1.268       .  A
O701       Ni705   1.929   1_655  S
O701       Ni723   1.902       .  S
O701        H724   0.966       .  S
C702        O719   1.275       .  A
C702        O711   1.273       .  A
O703        C709   1.276   1_545  A
O704       Ni722   1.912       .  S
O704        C706   1.270   1_554  A
Ni705       O708   1.944       .  S
Ni705       O710   1.900       .  S
C706       C1066   1.490       .  S
C706        O716   1.280       .  A
O707       Ni723   1.928       .  S
O707        C713   1.271       .  A
O708        C713   1.269   1_455  A
C709        C773   1.494       .  S
O710        C712   1.271       .  A
O711       Ni722   1.953       .  S
C712        C797   1.498       .  S
C712        O718   1.284   1_455  A
O715       Ni723   1.918   1_545  S
O716       Ni717   1.960   1_556  S
Ni717       O721   1.902   1_654  S
Ni717       O719   1.929       .  S
O718       Ni723   1.969       .  S
C720        C893   1.488       .  S
C720        O721   1.272       .  A
C725        C726   1.390       .  A
C725        C730   1.405       .  A
C725       C1013   1.479       .  S
C726        C727   1.396       .  A
C726        H745   1.087       .  S
C727        C728   1.416       .  A
C727        C946   1.482       .  S
C728        C729   1.422       .  A
C728        C735   1.407       .  A
C729        C730   1.424       .  A
C729        C734   1.416       .  A
C730        C731   1.402       .  A
C731        C732   1.387       .  A
C731        H741   1.083       .  S
C732        C733   1.403       .  A
C732        H742   1.083       .  S
C733        C734   1.421       .  A
C733        C740   1.402       .  A
C734        C737   1.425       .  A
C735        C736   1.403       .  A
C735        H743   1.083       .  S
C736        C737   1.406       .  A
C736        H744   1.083       .  S
C737        C738   1.419       .  A
C738        C739   1.396       .  A
C738        C802   1.487       .  S
C739        C740   1.387       .  A
C739        H746   1.087       .  S
C740        C845   1.472       .  S
C747        C748   1.389       .  A
C747        C752   1.413       .  A
C747        C917   1.490       .  S
C748        C749   1.396       .  A
C748        H767   1.087       .  S
C749        C750   1.420       .  A
C749        C989   1.489       .  S
C750        C751   1.425       .  A
C750        C757   1.408       .  A
C751        C752   1.427       .  A
C751        C756   1.422       .  A
C752        C753   1.403       .  A
C753        C754   1.392       .  A
C753        H763   1.082       .  S
C754        C755   1.404       .  A
C754        H764   1.083       .  S
C755        C756   1.423       .  A
C755        C762   1.408       .  A
C756        C759   1.427       .  A
C757        C758   1.405       .  A
C757        H765   1.083       .  S
C758        C759   1.406       .  A
C758        H766   1.083       .  S
C759        C760   1.423       .  A
C760        C761   1.396       .  A
C760        C826   1.492       .  S
C761        C762   1.390       .  A
C761        H768   1.087       .  S
C762        C778   1.479       .  S
C769        C770   1.405       .  A
C769        C774   1.401       .  A
C769        C783   1.444       .  S
C770        C771   1.401       .  A
C770        C775   1.481       .  S
C771        C772   1.399       .  A
C771        H790   1.085       .  S
C772        C773   1.420       .  A
C772        C784   1.445       .  S
C773        C774   1.412       .  A
C774        H789   1.084   1_565  S
C775        C776   1.402       .  A
C775        C780   1.410       .  A
C776        C777   1.398       .  A
C776        H791   1.085       .  S
C777        C778   1.410       .  A
C777        C781   1.444       .  S
C778        C779   1.403       .  A
C779        C780   1.401       .  A
C779        H792   1.085       .  S
C780        C782   1.444       .  S
C781        N785   1.157       .  T
C782        N786   1.157       .  T
C783        N788   1.157   1_565  T
C784        N787   1.158       .  T
C793        C794   1.415       .  A
C793        C798   1.402       .  A
C793        C807   1.446       .  S
C794        C795   1.407       .  A
C794        C799   1.502       .  S
C795        C796   1.410       .  A
C795        H814   1.084   1_565  S
C796        C797   1.416       .  A
C796        C808   1.442   1_565  S
C797        C798   1.407       .  A
C798        H813   1.085       .  S
C799        C800   1.408       .  A
C799        C804   1.414       .  A
C800        C801   1.405       .  A
C800        H815   1.085   1_565  S
C801        C802   1.410       .  A
C801        C805   1.444       .  S
C802        C803   1.406       .  A
C803        C804   1.405       .  A
C803        H816   1.085       .  S
C804        C806   1.443       .  S
C805        N809   1.157       .  T
C806        N810   1.157       .  T
C807        N812   1.158       .  T
C808        N811   1.157   1_455  T
C817        C818   1.414       .  A
C817        C822   1.413       .  A
C817        C831   1.442       .  S
C818        C819   1.404       .  A
C818        C823   1.499       .  S
C819        C820   1.400       .  A
C819        H838   1.085       .  S
C820        C821   1.415       .  A
C820        C832   1.445       .  S
C821        C822   1.409       .  A
C822        H837   1.084       .  S
C823        C824   1.404       .  A
C823        C828   1.414       .  A
C824        C825   1.407       .  A
C824        H839   1.084       .  S
C825        C826   1.414       .  A
C825        C829   1.443       .  S
C826        C827   1.405       .  A
C827        C828   1.406       .  A
C827        H840   1.085       .  S
C828        C830   1.444       .  S
C829        N833   1.157       .  T
C830        N834   1.157       .  T
C831        N836   1.157       .  T
C832        N835   1.157       .  T
C841        C842   1.408       .  A
C841        C846   1.395       .  A
C841        C855   1.444       .  S
C842        C843   1.401       .  A
C842        C847   1.470       .  S
C843        C844   1.397       .  A
C843        H862   1.085       .  S
C844        C845   1.408       .  A
C844        C856   1.444       .  S
C845        C846   1.400       .  A
C846        H861   1.085       .  S
C847        C848   1.397       .  A
C847        C852   1.409       .  A
C848        C849   1.398       .  A
C848        H863   1.085       .  S
C849        C850   1.420       .  A
C849        C853   1.445       .  S
C850        C851   1.404       .  A
C851        C852   1.395       .  A
C851        H864   1.085       .  S
C852        C854   1.446       .  S
C853        N857   1.157       .  T
C854        N858   1.157       .  T
C855        N860   1.157       .  T
C856        N859   1.157       .  T
C865        C866   1.416       .  A
C865        C870   1.407       .  A
C865        C879   1.444       .  S
C866        C867   1.402       .  A
C866        C871   1.500       .  S
C867        C868   1.403       .  A
C867        H886   1.085       .  S
C868        C869   1.418       .  A
C868        C880   1.444       .  S
C869        C870   1.405       .  A
C870        H885   1.085       .  S
C871        C872   1.408       .  A
C871        C876   1.414       .  A
C872        C873   1.412       .  A
C872        H887   1.084       .  S
C873        C874   1.417       .  A
C873        C877   1.443       .  S
C874        C875   1.406       .  A
C875        C876   1.399       .  A
C875        H888   1.085       .  S
C876        C878   1.446       .  S
C877        N881   1.157   1_455  T
C878        N882   1.157       .  T
C879        N884   1.157       .  T
C880        N883   1.157       .  T
C889        C890   1.409       .  A
C889        C894   1.396       .  A
C889        C903   1.446       .  S
C890        C895   1.471       .  S
C891        C892   1.398       .  A
C891        H910   1.085       .  S
C892        C904   1.445       .  S
C893        C894   1.408       .  A
C894        H909   1.084       .  S
C895        C896   1.400       .  A
C895        C900   1.408       .  A
C896        C897   1.392       .  A
C896        H911   1.085       .  S
C897        C898   1.408       .  A
C897        C901   1.445       .  S
C898        C899   1.402       .  A
C899        C900   1.399       .  A
C899        H912   1.084       .  S
C900        C902   1.443       .  S
C901        N905   1.157       .  T
C903        N908   1.157       .  T
C904        N907   1.157       .  T
C913        C914   1.414       .  A
C913        C918   1.403       .  A
C913        C927   1.443       .  S
C914        C915   1.403       .  A
C914        C919   1.493       .  S
C915        C916   1.401       .  A
C915        H934   1.085       .  S
C916        C917   1.414       .  A
C916        C928   1.445       .  S
C917        C918   1.403       .  A
C918        H933   1.085       .  S
C919        C920   1.403       .  A
C919        C924   1.413       .  A
C920        C921   1.405       .  A
C920        H935   1.085       .  S
C921        C922   1.420       .  A
C921        C925   1.444   1_565  S
C922        C923   1.408       .  A
C923        C924   1.400       .  A
C923        H936   1.085       .  S
C924        C926   1.445       .  S
C925        N929   1.157       .  T
C926        N930   1.157       .  T
C927        N932   1.157       .  T
C928        N931   1.157       .  T
C937        C938   1.409       .  A
C937        C942   1.404       .  A
C937        C951   1.443   1_565  S
C938        C939   1.405       .  A
C938        C943   1.494       .  S
C939        C940   1.403       .  A
C939        H958   1.085       .  S
C940        C941   1.416       .  A
C940        C952   1.444       .  S
C941        C942   1.409       .  A
C942        H957   1.085   1_565  S
C943        C944   1.406       .  A
C943        C948   1.414       .  A
C944        C945   1.404       .  A
C944        H959   1.084   1_565  S
C945        C946   1.409       .  A
C945        C949   1.443       .  S
C946        C947   1.404       .  A
C947        C948   1.401       .  A
C947        H960   1.085       .  S
C948        C950   1.444       .  S
C949        N953   1.157       .  T
C950        N954   1.157       .  T
C951        N956   1.157       .  T
C952        N955   1.158       .  T
C961        C966   1.402       .  A
C961        C975   1.443       .  S
C962        C963   1.400       .  A
C962        C967   1.478       .  S
C963        C964   1.396       .  A
C963        H982   1.086       .  S
C964        C965   1.418       .  A
C964        C976   1.445       .  S
C966        H981   1.084       .  S
C967        C968   1.404       .  A
C967        C972   1.411       .  A
C968        C969   1.398       .  A
C968        H983   1.085       .  S
C969        C970   1.408       .  A
C969        C973   1.443       .  S
C970        C971   1.402       .  A
C971        C972   1.397       .  A
C971        H984   1.085       .  S
C972        C974   1.444       .  S
C973        N977   1.157       .  T
C974        N978   1.157       .  T
C975        N980   1.157       .  T
C976        N979   1.157       .  T
C985        C986   1.416       .  A
C985        C990   1.406       .  A
C985        C999   1.444       .  S
C986        C987   1.406       .  A
C986        C991   1.502       .  S
C987        C988   1.404       .  A
C987       H1006   1.084       .  S
C988        C989   1.414       .  A
C988       C1000   1.443       .  S
C989        C990   1.404       .  A
C990       H1005   1.085       .  S
C991        C992   1.407       .  A
C991        C996   1.415       .  A
C992        C993   1.402       .  A
C992       H1007   1.085       .  S
C993        C994   1.412       .  A
C993        C997   1.445       .  S
C994        C995   1.406       .  A
C995        C996   1.410       .  A
C995       H1008   1.084       .  S
C996        C998   1.443       .  S
C997       N1001   1.157       .  T
C998       N1002   1.157       .  T
C999       N1004   1.157       .  T
C1000      N1003   1.157       .  T
C1009      C1010   1.410       .  A
C1009      C1014   1.398       .  A
C1009      C1023   1.444       .  S
C1010      C1011   1.402       .  A
C1010      C1015   1.481       .  S
C1011      C1012   1.398       .  A
C1011      H1030   1.085       .  S
C1012      C1013   1.410       .  A
C1012      C1024   1.444       .  S
C1013      C1014   1.403       .  A
C1014      H1029   1.085       .  S
C1015      C1016   1.403       .  A
C1015      C1020   1.407       .  A
C1016      C1017   1.397       .  A
C1016      H1031   1.085       .  S
C1017      C1018   1.413       .  A
C1017      C1021   1.443       .  S
C1018      C1019   1.410       .  A
C1019      C1020   1.401       .  A
C1019      H1032   1.084       .  S
C1020      C1022   1.444       .  S
C1021      N1025   1.157       .  T
C1022      N1026   1.157       .  T
C1023      N1028   1.157       .  T
C1024      N1027   1.157       .  T
C1033      C1034   1.415       .  A
C1033      C1038   1.404       .  A
C1033      C1047   1.443       .  S
C1034      C1035   1.406       .  A
C1034      C1039   1.500       .  S
C1035      C1036   1.406       .  A
C1035      H1054   1.084       .  S
C1036      C1037   1.412       .  A
C1036      C1048   1.443       .  S
C1037      C1038   1.404       .  A
C1038      H1053   1.085       .  S
C1039      C1040   1.405       .  A
C1039      C1044   1.418       .  A
C1040      C1041   1.406       .  A
C1040      H1055   1.084       .  S
C1041      C1042   1.416       .  A
C1041      C1045   1.445       .  S
C1042      C1043   1.403       .  A
C1043      C1044   1.405       .  A
C1043      H1056   1.085       .  S
C1044      C1046   1.445       .  S
C1045      N1049   1.157       .  T
C1046      N1050   1.157       .  T
C1047      N1052   1.157       .  T
C1048      N1051   1.157       .  T
C1057      C1058   1.415       .  A
C1057      C1062   1.409       .  A
C1057      C1071   1.443       .  S
C1058      C1059   1.408       .  A
C1058      C1063   1.509       .  S
C1059      C1060   1.406       .  A
C1059      H1078   1.084       .  S
C1060      C1061   1.413       .  A
C1060      C1072   1.444       .  S
C1061      C1062   1.407       .  A
C1062      H1077   1.085       .  S
C1063      C1064   1.410       .  A
C1063      C1068   1.414       .  A
C1064      C1065   1.407       .  A
C1064      H1079   1.083       .  S
C1065      C1066   1.411       .  A
C1065      C1069   1.445       .  S
C1066      C1067   1.406       .  A
C1067      C1068   1.408       .  A
C1069      N1073   1.158       .  T
C1070      N1074   1.157       .  T
C1071      N1076   1.157       .  T
C1072      N1075   1.157       .  T
C1081      C1082   1.408       .  A
C1081      C1086   1.394       .  A
C1081      C1095   1.442       .  S
C1082      C1083   1.397       .  A
C1082      C1087   1.473       .  S
C1083      C1084   1.400       .  A
C1083      H1102   1.085       .  S
C1084      C1085   1.418       .  A
C1084      C1096   1.444       .  S
C1085      C1086   1.401       .  A
C1086      H1101   1.085       .  S
C1087      C1088   1.401       .  A
C1087      C1092   1.409       .  A
C1088      C1089   1.395       .  A
C1088      H1103   1.085       .  S
C1089      C1090   1.410       .  A
C1089      C1093   1.445       .  S
C1090      C1091   1.401       .  A
C1091      C1092   1.398       .  A
C1091      H1104   1.085       .  S
C1092      C1094   1.443       .  S
C1093      N1097   1.157       .  T
C1094      N1098   1.157       .  T
C1095      N1100   1.156       .  T
C1096      N1099   1.157       .  T
C1105      C1106   1.414       .  A
C1105      C1110   1.406       .  A
C1105      C1119   1.444       .  S
C1106      C1107   1.406       .  A
C1106      C1111   1.501       .  S
C1107      C1108   1.407       .  A
C1107      H1126   1.084       .  S
C1108      C1109   1.413       .  A
C1108      C1120   1.443       .  S
C1109      C1110   1.407       .  A
C1110      H1125   1.085       .  S
C1111      C1112   1.405       .  A
C1111      C1116   1.417       .  A
C1112      C1113   1.406       .  A
C1113      C1114   1.415       .  A
C1114      C1115   1.404       .  A
C1115      C1116   1.406       .  A
C1115      H1128   1.085       .  S
C1116      C1118   1.445       .  S
C1117      N1121   1.158       .  T
C1118      N1122   1.157       .  T
C1119      N1124   1.157       .  T
C1120      N1123   1.157       .  T
C1129      C1130   1.407       .  A
C1129      C1134   1.395       .  A
C1129      C1143   1.444       .  S
C1130      C1131   1.401       .  A
C1130      C1135   1.471       .  S
C1131      C1132   1.398       .  A
C1131      H1150   1.085       .  S
C1132      C1133   1.410       .  A
C1132      C1144   1.444       .  S
C1133      C1134   1.401       .  A
C1134      H1149   1.085       .  S
C1135      C1136   1.399       .  A
C1135      C1140   1.409       .  A
C1136      C1137   1.400       .  A
C1136      H1151   1.085       .  S
C1137      C1138   1.415       .  A
C1137      C1141   1.444       .  S
C1138      C1139   1.401       .  A
C1139      C1140   1.393       .  A
C1139      H1152   1.085       .  S
C1140      C1142   1.445       .  S
C1141      N1145   1.157       .  T
C1142      N1146   1.157       .  T
C1143      N1148   1.157       .  T
C1144      N1147   1.157       .  T
