geometry optimzed in LAMMPS
_audit_creation_date              2020-11-30 
_audit_creation_method            'lammps2cif' 
_symmetry_space_group_name_H-M    'P1' 
_symmetry_Int_Tables_number       1 
_symmetry_cell_setting            triclinic 
loop_ 
_symmetry_equiv_pos_as_xyz 
  x,y,z 
_cell_length_a                    29.15942484 
_cell_length_b                    35.89814720336334 
_cell_length_c                    47.754208459730435 
_cell_angle_alpha                 90.2083265018467 
_cell_angle_beta                  90.04285808942275 
_cell_angle_gamma                 89.71670945446037 
loop_ 
_atom_site_label 
_atom_site_type_symbol 
_atom_site_fract_x 
_atom_site_fract_y 
_atom_site_fract_z 
_atom_site_charge 
C1          C  0.72603028  0.11634353  0.35263198     0.02000
C2          C  0.72439618  0.07708178  0.35391295     0.01900
C3          C  0.75541032  0.05797657  0.37144721    -0.18600
C4          C  0.78882939  0.07772181  0.38676419     0.02000
C5          C  0.79290699  0.11675369  0.38284525     0.01900
C6          C  0.76111229  0.13551513  0.36617532    -0.18600
H7          H  0.76242102  0.16565205  0.36475056     0.04000
H8          H  0.75201758  0.02817590  0.37411411     0.04000
O9          O  0.59975715  0.23752193  0.29065229    -0.81200
O10         O  0.44852949  0.28042120  0.20546279    -0.65900
O11         O  0.51100490  0.25828748  0.27302673    -1.12500
C12         C  0.49126857  0.13313504  0.24207907     1.05700
O13         O  0.39531307  0.23798197  0.21334783    -0.79100
O14         O  0.40131518  0.19075694  0.25648042    -0.66700
Ni15       Ni  0.56652864  0.28316498  0.28287505     1.34900
C16         C  0.41485125  0.19451488  0.28156856     0.84400
O17         O  0.47894154  0.32272212  0.24710209    -0.79600
O18         O  0.53838324  0.33138093  0.27653846    -0.89900
C19         C  0.40795284  0.26870248  0.20266856     0.84000
O20         O  0.59425704  0.28338965  0.24673287    -0.68100
O21         O  0.45897278  0.14511652  0.22642949    -0.87400
C22         C  0.57856157  0.28135186  0.22198571     0.84800
C23         C  0.50433509  0.34334205  0.26225324     1.06400
H24         H  0.50621405  0.21360841  0.21725239     0.38200
O25         O  0.48405235  0.21832585  0.23189004    -1.10000
O26         O  0.45674332  0.20054335  0.28781344    -0.66700
Ni27       Ni  0.51284733  0.20591363  0.26634166     1.26300
O28         O  0.53611099  0.27701467  0.21688256    -0.66900
O29         O  0.51454832  0.15361143  0.25854871    -0.79200
C30         C  0.58658636  0.20706948  0.30152255     0.84200
O31         O  0.54546513  0.19619718  0.29989325    -0.66400
Ni32       Ni  0.42976164  0.19284872  0.22069390     1.27400
Ni33       Ni  0.48121786  0.27059935  0.23890185     1.26100
H34         H  0.48962251  0.26342436  0.28801092     0.38800
O35         O  0.40110545  0.48801037  0.29573759    -0.81200
O36         O  0.53794067  0.44614069  0.20181438    -0.65900
O37         O  0.48729294  0.46855664  0.27297092    -1.12500
C38         C  0.50154768  0.09325352  0.24178270     1.05700
O39         O  0.59306121  0.48774720  0.20814267    -0.79100
O40         O  0.59403139  0.03399199  0.25241814    -0.66700
Ni41       Ni  0.43532085  0.44294464  0.28726190     1.34900
C42         C  0.58167386  0.03263270  0.27787324     0.84400
O43         O  0.51409987  0.40366242  0.24474911    -0.79600
O44         O  0.46460617  0.39536448  0.28036957    -0.89900
C45         C  0.57832581  0.45749277  0.19749604     0.84000
O46         O  0.40193417  0.43945495  0.25320334    -0.68100
O47         O  0.53373390  0.08140936  0.22590126    -0.87400
C48         C  0.41139372  0.44249958  0.22744448     0.84800
C49         C  0.49402756  0.38328308  0.26269699     1.06400
H50         H  0.48378244  0.01304954  0.21666999     0.38200
O51         O  0.50729795  0.00821562  0.23048550    -1.10000
O52         O  0.54017641  0.02796371  0.28504406    -0.66700
Ni53       Ni  0.48255523  0.02064629  0.26606504     1.26300
O54         O  0.45176155  0.44970951  0.21880123    -0.66900
O55         O  0.47821330  0.07258446  0.25794464    -0.79200
C56         C  0.41492569  0.01897363  0.30561055     0.84200
O57         O  0.45504502  0.03057460  0.30115686    -0.66400
Ni58       Ni  0.56103599  0.03331112  0.21787730     1.27400
Ni59       Ni  0.51073628  0.45593105  0.23706410     1.26100
H60         H  0.51168771  0.46422806  0.28628449     0.38800
C61         C  0.28503503  0.11168381  0.36405628     0.02000
C62         C  0.28573112  0.15091277  0.36595058     0.01900
C63         C  0.25373788  0.16927729  0.38336438    -0.18600
C64         C  0.22119682  0.14862995  0.39860263     0.02000
C65         C  0.21945806  0.10943283  0.39519433     0.01900
C66         C  0.25165360  0.09152060  0.37822296    -0.18600
H67         H  0.25065691  0.06146250  0.37588390     0.04000
H68         H  0.25445670  0.19935113  0.38525048     0.04000
O69         O  0.90382864  0.23869199  0.45646538    -0.81200
O70         O  0.03730154  0.28206492  0.05214351    -0.65900
O71         O  0.98822625  0.25846549  0.48074317    -1.12500
C72         C  0.00126431  0.13393564  0.01432011     1.05700
O73         O  0.09177418  0.23912782  0.04784698    -0.79100
O74         O  0.09317186  0.18963876  0.50569475    -0.66700
Ni75       Ni  0.93573737  0.28388317  0.46632739     1.34900
C76         C  0.08417902  0.19189386  0.47976204     0.84400
O77         O  0.01520062  0.32347430  0.00832475    -0.79600
O78         O  0.96248117  0.33188075  0.47444930    -0.89900
C79         C  0.07749084  0.27045905  0.05695463     0.84000
O80         O  0.90099369  0.28553808  0.99997068    -0.68100
O81         O  0.02970959  0.14629579  0.03242206    -0.87400
C82         C  0.91117901  0.28471594  0.02576318     0.84800
C83         C  0.99304621  0.34395387  0.49128500     1.06400
H84         H  0.98179583  0.21543572  0.03693088     0.38200
O85         O  0.00663395  0.21949384  0.02393073    -1.10000
O86         O  0.04412470  0.19926684  0.47050897    -0.66700
Ni87       Ni  0.98455911  0.20623962  0.48777293     1.26300
O88         O  0.95199461  0.27938272  0.03447477    -0.66900
O89         O  0.98159252  0.15408399  0.49591788    -0.79200
C90         C  0.91822208  0.20762769  0.44691444     0.84200
O91         O  0.95833724  0.19577647  0.45214381    -0.66400
Ni92       Ni  0.05834205  0.19397314  0.03924671     1.27400
Ni93       Ni  0.01100306  0.27157540  0.01672974     1.26100
H94         H  0.01262048  0.26281568  0.46748709     0.38800
O95         O  0.09599318  0.48955204  0.46183635    -0.81200
O96         O  0.94716864  0.44618214  0.04882974    -0.65900
O97         O  0.00854554  0.46906260  0.48111605    -1.12500
C98         C  0.99106352  0.09401994  0.01409151     1.05700
O99         O  0.89495392  0.49017642  0.04227675    -0.79100
O100        O  0.90066395  0.03952675  0.50062110    -0.66700
Ni101      Ni  0.06399226  0.44403958  0.47086409     1.34900
C102        C  0.91272665  0.03568627  0.47525142     0.84400
O103        O  0.97582211  0.40464699  0.00611402    -0.79600
O104        O  0.03719347  0.39581721  0.47821675    -0.89900
C105        C  0.90701628  0.45884627  0.05230040     0.84000
O106        O  0.09283862  0.44479432  0.00671476    -0.68100
O107        O  0.96097046  0.08187232  0.03110768    -0.87400
C108        C  0.07706307  0.44476115  0.03147407     0.84800
C109        C  0.00245618  0.38392897  0.49171783     1.06400
H110        H  0.00662838  0.01223855  0.03732530     0.38200
O111        O  0.98353307  0.00841909  0.02309437    -1.10000
O112        O  0.95356527  0.02728937  0.46802018    -0.66700
Ni113      Ni  0.01063253  0.02130861  0.48827548     1.26300
O114        O  0.03447532  0.44801894  0.03674249    -0.66900
O115        O  0.01210033  0.07369686  0.49628263    -0.79200
C116        C  0.08224523  0.02002729  0.45095793     0.84200
O117        O  0.04135858  0.03129984  0.45414428    -0.66400
Ni118      Ni  0.93050925  0.03468058  0.03587022     1.27400
Ni119      Ni  0.97930334  0.45640534  0.01526052     1.26100
H120        H  0.98698287  0.46434395  0.46616455     0.38800
C121        C  0.27765738  0.39970550  0.14430145     0.02000
C122        C  0.27802750  0.36030883  0.14272489     0.01900
C123        C  0.24428477  0.34181604  0.12753469    -0.18600
C124        C  0.21043333  0.36151485  0.11324440     0.02000
C125        C  0.21124373  0.40091751  0.11293379     0.01900
C126        C  0.24495994  0.41986596  0.12863309    -0.18600
H127        H  0.24460030  0.45002819  0.12951356     0.04000
H128        H  0.24406727  0.31159130  0.12706828     0.04000
C129        C  0.71051495  0.36499533  0.14091982     0.02000
C130        C  0.71016896  0.32572547  0.13967898     0.01900
C131        C  0.74274385  0.30702217  0.12293129    -0.18600
C132        C  0.77593959  0.32735052  0.10802834     0.02000
C133        C  0.77717427  0.36659497  0.11083257     0.01900
C134        C  0.74421383  0.38491351  0.12690728    -0.18600
H135        H  0.74461653  0.41508221  0.12840489     0.04000
H136        H  0.74194867  0.27692501  0.12125855     0.04000
C137        C  0.88844787  0.41304441  0.08926702    -0.26600
C138        C  0.87315630  0.43587444  0.06731813    -0.14700
C139        C  0.82630161  0.43546030  0.05963650     0.35900
C140        C  0.79608978  0.41208351  0.07404908    -0.26100
C141        C  0.81138411  0.38967281  0.09615885    -0.15300
C142        C  0.85809030  0.39046742  0.10412997     0.37000
N143        N  0.87564981  0.37009499  0.12771656    -0.89600
H144        H  0.92423564  0.41343770  0.09542879     0.18100
H145        H  0.76021671  0.41134164  0.06810316     0.18100
N146        N  0.80971970  0.95770430  0.03673613    -0.88600
H147        H  0.84988285  0.35590845  0.13833811     0.35500
H148        H  0.89879782  0.35016815  0.12011899     0.40600
H149        H  0.80980244  0.98549398  0.04333550     0.40200
H150        H  0.77548718  0.95141958  0.03230843     0.35100
C151        C  0.15695019  0.44698576  0.05033010    -0.26600
C152        C  0.11013887  0.43975490  0.05501588    -0.14700
C153        C  0.09661915  0.42549939  0.08139139     0.35900
C154        C  0.13026094  0.41744665  0.10166927    -0.26100
C155        C  0.17710447  0.42152083  0.09576688    -0.15300
C156        C  0.19034699  0.43769283  0.07032326     0.37000
N157        N  0.23795369  0.44241060  0.06398086    -0.89600
H158        H  0.16807020  0.45837703  0.03049499     0.18100
H159        H  0.12023174  0.40478617  0.12127460     0.18100
N160        N  0.04938183  0.41691805  0.08696764    -0.88600
H161        H  0.24342810  0.47057419  0.05968050     0.35500
H162        H  0.24535792  0.42713606  0.04584210     0.40600
H163        H  0.04027347  0.39467080  0.07393268     0.40200
H164        H  0.04534859  0.40748559  0.10750574     0.35100
C165        C  0.87894403  0.27955973  0.07437850    -0.26600
C166        C  0.87367364  0.29132876  0.04645001    -0.14700
C167        C  0.83299431  0.31060448  0.03882342     0.35900
C168        C  0.79959894  0.31810177  0.05916489    -0.26100
C169        C  0.80646579  0.30883546  0.08730772    -0.15300
C170        C  0.84592434  0.28808060  0.09492471     0.37000
N171        N  0.85485996  0.27682009  0.12328299    -0.89600
H172        H  0.90957271  0.26444375  0.08052406     0.18100
H173        H  0.76932552  0.33401225  0.05344820     0.18100
N174        N  0.82664704  0.32455762  0.01087622    -0.88600
H175        H  0.85529858  0.24770309  0.12362495     0.35500
H176        H  0.82874709  0.28525901  0.13683229     0.40600
H177        H  0.85069882  0.34568036  0.00783924     0.40200
H178        H  0.79437242  0.33703311  0.00865961     0.35100
C179        C  0.11025821  0.29685936  0.10040897    -0.26600
C180        C  0.10983430  0.29522213  0.07114996    -0.14700
C181        C  0.14117053  0.31646457  0.05551148     0.35900
C182        C  0.17345316  0.33849345  0.06961293    -0.26100
C183        C  0.17447285  0.33968466  0.09891936    -0.15300
C184        C  0.14251359  0.31892634  0.11453553     0.37000
N185        N  0.14351896  0.32000941  0.14463085    -0.89600
H186        H  0.08588712  0.28046276  0.11217899     0.18100
H187        H  0.19825992  0.35441108  0.05781370     0.18100
N188        N  0.14039560  0.31509969  0.02542450    -0.88600
H189        H  0.11806016  0.30287645  0.15293163     0.35500
H190        H  0.13556976  0.34720789  0.15090720     0.40600
H191        H  0.10924953  0.32666617  0.01885088     0.40200
H192        H  0.16621627  0.33188335  0.01712829     0.35100
C193        C  0.11941527  0.19814864  0.43195213    -0.26600
C194        C  0.12226808  0.18461275  0.45956763    -0.14700
C195        C  0.16117341  0.16311936  0.46738056     0.35900
C196        C  0.19539796  0.15547776  0.44756227    -0.26100
C197        C  0.19092912  0.16682900  0.41967523    -0.15300
C198        C  0.15327363  0.18924954  0.41186087     0.37000
N199        N  0.14880147  0.20180245  0.38344049    -0.89600
H200        H  0.09009856  0.21488423  0.42581593     0.18100
H201        H  0.22426022  0.13795329  0.45333264     0.18100
N202        N  0.16481153  0.14721728  0.49491202    -0.88600
H203        H  0.11932190  0.21821155  0.38116379     0.35500
H204        H  0.14428630  0.17838318  0.37068298     0.40600
H205        H  0.13895826  0.12728148  0.49675076     0.40200
H206        H  0.19588806  0.13291248  0.49730172     0.35100
C207        C  0.13755851  0.09349679  0.40430777    -0.26600
C208        C  0.18420167  0.08636909  0.40921359    -0.14700
C209        C  0.19694272  0.05763739  0.42757158     0.35900
C210        C  0.16309381  0.03627126  0.44048227    -0.26100
C211        C  0.11615919  0.04353143  0.43606302    -0.15300
C212        C  0.10328076  0.07305797  0.41801519     0.37000
N213        N  0.05579926  0.08211708  0.41337125    -0.89600
H214        H  0.12788875  0.11546400  0.38996840     0.18100
H215        H  0.17387600  0.51430714  0.45456867     0.18100
N216        N  0.24431958  0.05066894  0.43367897    -0.88600
H217        H  0.05253270  0.10254586  0.39793281     0.35500
H218        H  0.04331801  0.09427222  0.43179882     0.40600
H219        H  0.25172200  0.02300908  0.42835818     0.40200
H220        H  0.24911069  0.55376224  0.45526188     0.35100
C221        C  0.63405518  0.39433212  0.14335012    -0.26600
C222        C  0.67583978  0.38645484  0.15663226    -0.14700
C223        C  0.68537091  0.40203981  0.18316898     0.35900
C224        C  0.65270989  0.42529194  0.19569317    -0.26100
C225        C  0.61081155  0.43329942  0.18244679    -0.15300
C226        C  0.60127251  0.41760425  0.15584128     0.37000
N227        N  0.55985139  0.42539851  0.14048065    -0.89600
H228        H  0.62737514  0.38302188  0.12267399     0.18100
H229        H  0.65998147  0.43697970  0.21618498     0.18100
N230        N  0.72738761  0.39480377  0.19804207    -0.88600
H231        H  0.56926846  0.93783343  0.12158324     0.35500
H232        H  0.53913831  0.94487410  0.15070046     0.40600
H233        H  0.74519565  0.41993706  0.19955293     0.40200
H234        H  0.74861039  0.37617508  0.18727771     0.35100
C235        C  0.30003500  0.40944903  0.19347960    -0.26600
C236        C  0.30724540  0.41846303  0.16537767    -0.14700
C237        C  0.34587821  0.43971309  0.15801730     0.35900
C238        C  0.37894504  0.44820279  0.17873192    -0.26100
C239        C  0.37357704  0.43642824  0.20671732    -0.15300
C240        C  0.33231954  0.41776067  0.21404472     0.37000
N241        N  0.32260496  0.40505725  0.24181895    -0.89600
H242        H  0.26993991  0.39360281  0.19926867     0.18100
H243        H  0.40937697  0.46348659  0.17286064     0.18100
N244        N  0.35154240  0.45233032  0.12969890    -0.88600
H245        H  0.32050149  0.42796613  0.25532994     0.35500
H246        H  0.34851322  0.38675262  0.24824354     0.40600
H247        H  0.35498934  0.42906431  0.11668105     0.40200
H248        H  0.38181348  0.46759244  0.12777019     0.35100
C249        C  0.33824112  0.04813261  0.30946946    -0.26600
C250        C  0.38241758  0.04330989  0.32054948    -0.14700
C251        C  0.39536234  0.06282143  0.34493241     0.35900
C252        C  0.36310453  0.08585305  0.35832552    -0.26100
C253        C  0.31886305  0.09052425  0.34732734    -0.15300
C254        C  0.30652912  0.07211091  0.32221717     0.37000
N255        N  0.26242649  0.07695477  0.30914511    -0.89600
H256        H  0.32861128  0.03377112  0.29035455     0.18100
H257        H  0.37206748  0.09951102  0.37781824     0.18100
N258        N  0.44073241  0.05846382  0.35631361    -0.88600
H259        H  0.26801020  0.08839788  0.28933886     0.35500
H260        H  0.24208921  0.09621970  0.31991505     0.40600
H261        H  0.44438172  0.03076620  0.36266985     0.40200
H262        H  0.44473676  0.07494918  0.37423737     0.35100
C263        C  0.65901847  0.28286051  0.20414304    -0.26600
C264        C  0.61169960  0.28538874  0.19833746    -0.14700
C265        C  0.59769796  0.29471890  0.17074981     0.35900
C266        C  0.63103769  0.30439944  0.15073711    -0.26100
C267        C  0.67776703  0.30494465  0.15761070    -0.15300
C268        C  0.69188313  0.29266954  0.18411197     0.37000
N269        N  0.73961151  0.29207220  0.19122282    -0.89600
H270        H  0.67077553  0.27482311  0.22479545     0.18100
H271        H  0.62042208  0.31366057  0.13015263     0.18100
N272        N  0.54989327  0.29639929  0.16345199    -0.88600
H273        H  0.74443102  0.30929530  0.20866878     0.35500
H274        H  0.74834726  0.26487312  0.19696955     0.40600
H275        H  0.53745386  0.26913583  0.16364712     0.40200
H276        H  0.54563746  0.30598027  0.14295734     0.35100
C277        C  0.29643281  0.31418918  0.17958735    -0.26600
C278        C  0.31190203  0.33729332  0.15803363    -0.14700
C279        C  0.35874460  0.33763905  0.15094633     0.35900
C280        C  0.38958914  0.31544137  0.16613807    -0.26100
C281        C  0.37421674  0.29209111  0.18767518    -0.15300
C282        C  0.32709982  0.29171866  0.19467127     0.37000
N283        N  0.31065501  0.26920204  0.21736271    -0.89600
H284        H  0.26028662  0.31416785  0.18487181     0.18100
H285        H  0.42565777  0.31568257  0.16068417     0.18100
N286        N  0.37457945  0.35991363  0.12801669    -0.88600
H287        H  0.27505986  0.27169355  0.21935009     0.35500
H288        H  0.32476485  0.27976223  0.23588041     0.40600
H289        H  0.35957064  0.34954073  0.10971139     0.40200
H290        H  0.41006227  0.35714067  0.12556767     0.35100
C291        C  0.30180933  0.17743060  0.31969059    -0.26600
C292        C  0.31670725  0.17199317  0.34720693    -0.14700
C293        C  0.36313444  0.17903007  0.35402290     0.35900
C294        C  0.39421992  0.18791350  0.33253938    -0.26100
C295        C  0.38002726  0.19041306  0.30439043    -0.15300
C296        C  0.33260608  0.18667949  0.29835373     0.37000
N297        N  0.31537800  0.19101838  0.27043811    -0.89600
H298        H  0.26627867  0.17213120  0.31434086     0.18100
H299        H  0.43006680  0.19140049  0.33786873     0.18100
N300        N  0.38032508  0.17561050  0.38212493    -0.88600
H301        H  0.29053437  0.21212088  0.27064685     0.35500
H302        H  0.29944819  0.16617060  0.26450237     0.40600
H303        H  0.35399549  0.16955388  0.39616798     0.40200
H304        H  0.39307833  0.20162734  0.38808897     0.35100
C305        C  0.80784051  0.07311389  0.43694407    -0.26600
C306        C  0.81487041  0.05945558  0.40977978    -0.14700
C307        C  0.85058764  0.03350596  0.40501330     0.35900
C308        C  0.88175177  0.02548234  0.42667578    -0.26100
C309        C  0.87740257  0.04232377  0.45325918    -0.15300
C310        C  0.83925569  0.06598307  0.45846610     0.37000
N311        N  0.83372281  0.08449187  0.48503904    -0.84000
H312        H  0.77934621  0.09192313  0.44080714     0.18100
H313        H  0.90979979  0.00631222  0.42260197     0.18100
N314        N  0.85621311  0.01521063  0.37850949    -0.88600
H315        H  0.80351183  0.10030361  0.48543659     0.35500
H316        H  0.86067729  0.10341451  0.48715504     0.40600
H317        H  0.85901203  0.03518310  0.36277925     0.40200
H318        H  0.82680969  0.99953221  0.37454868     0.35100
C319        C  0.80934264  0.16165154  0.42092435    -0.26600
C320        C  0.82605768  0.13967567  0.39886101    -0.14700
C321        C  0.87310829  0.14051165  0.39214559     0.35900
C322        C  0.90286231  0.16253655  0.40834179    -0.26100
C323        C  0.88622088  0.18415186  0.43069815    -0.15300
C324        C  0.83892817  0.18344225  0.43721673     0.37000
N325        N  0.82123270  0.20417842  0.46070304    -0.89600
H326        H  0.77304604  0.16107638  0.42579273     0.18100
H327        H  0.93903109  0.16338274  0.40319756     0.18100
N328        N  0.89015162  0.12027183  0.36831764    -0.88600
H329        H  0.78573904  0.20083753  0.46239889     0.35500
H330        H  0.83556600  0.19275411  0.47884270     0.40600
H331        H  0.88807159  0.09203831  0.37303974     0.40200
H332        H  0.92497127  0.12575781  0.36526762     0.35100
C333        C  0.66389732  0.03237228  0.29236525    -0.26600
C334        C  0.61760470  0.03762454  0.29987092    -0.14700
C335        C  0.60759213  0.05019927  0.32745559     0.35900
C336        C  0.64346596  0.05919315  0.34574608    -0.26100
C337        C  0.68943162  0.05671310  0.33730252    -0.15300
C338        C  0.69979401  0.04192850  0.31053347     0.37000
N339        N  0.74606494  0.03768364  0.30055136    -0.89600
H340        H  0.67255606  0.02202565  0.27167603     0.18100
H341        H  0.63527937  0.07068789  0.36615774     0.18100
N342        N  0.56167581  0.05624136  0.33717102    -0.88600
H343        H  0.75047173  0.05618818  0.28392271     0.35500
H344        H  0.77015198  0.04475770  0.31579600     0.40600
H345        H  0.54409770  0.03094960  0.33666924     0.40200
H346        H  0.54541928  0.07547251  0.32405554     0.35100
C347        C  0.62317360  0.17992173  0.34346529    -0.26600
C348        C  0.62099065  0.18259875  0.31429366    -0.14700
C349        C  0.65267470  0.16267844  0.29754282     0.35900
C350        C  0.68628557  0.14064203  0.31028718    -0.26100
C351        C  0.68908531  0.13850409  0.33949589    -0.15300
C352        C  0.65728622  0.15818123  0.35631642     0.37000
N353        N  0.66033655  0.15638155  0.38633940    -0.89600
H354        H  0.59879791  0.19535401  0.35617306     0.18100
H355        H  0.71072375  0.12554115  0.29740746     0.18100
N356        N  0.65124881  0.16430914  0.26758393    -0.88600
H357        H  0.63484028  0.17287491  0.39560466     0.35500
H358        H  0.65383134  0.12892328  0.39228546     0.40600
H359        H  0.65564620  0.19198486  0.26145686     0.40200
H360        H  0.61887107  0.15551837  0.26094549     0.35100
C361        C  0.72603035  0.11634358  0.85263192     0.02000
C362        C  0.72439617  0.07708183  0.85391287     0.01900
C363        C  0.75541032  0.05797656  0.87144710    -0.18600
C364        C  0.78882929  0.07772178  0.88676419     0.02000
C365        C  0.79290691  0.11675369  0.88284531     0.01900
C366        C  0.76111234  0.13551516  0.86617531    -0.18600
H367        H  0.76242112  0.16565208  0.86475055     0.04000
H368        H  0.75201766  0.02817585  0.87411387     0.04000
O369        O  0.59975709  0.23752189  0.79065206    -0.81200
O370        O  0.44852914  0.28042129  0.70546289    -0.65900
O371        O  0.51100488  0.25828757  0.77302671    -1.12500
C372        C  0.49126853  0.13313513  0.74207911     1.05700
O373        O  0.39531281  0.23798206  0.71334809    -0.79100
O374        O  0.40131515  0.19075673  0.75648054    -0.66700
Ni375      Ni  0.56652865  0.28316501  0.78287489     1.34900
C376        C  0.41485112  0.19451495  0.78156868     0.84400
O377        O  0.47894130  0.32272212  0.74710213    -0.79600
O378        O  0.53838326  0.33138098  0.77653831    -0.89900
C379        C  0.40795248  0.26870256  0.70266873     0.84000
O380        O  0.59425685  0.28338967  0.74673266    -0.68100
O381        O  0.45897285  0.14511663  0.72642946    -0.87400
C382        C  0.57856127  0.28135210  0.72198553     0.84800
C383        C  0.50433496  0.34334207  0.76225319     1.06400
H384        H  0.50621419  0.21360841  0.71725229     0.38200
O385        O  0.48405224  0.21832591  0.73189010    -1.10000
O386        O  0.45674316  0.20054367  0.78781354    -0.66700
Ni387      Ni  0.51284721  0.20591373  0.76634172     1.26300
O388        O  0.53611065  0.27701492  0.71688245    -0.66900
O389        O  0.51454808  0.15361149  0.75854890    -0.79200
C390        C  0.58658633  0.20706952  0.80152247     0.84200
O391        O  0.54546504  0.19619732  0.79989335    -0.66400
Ni392      Ni  0.42976154  0.19284879  0.72069401     1.27400
Ni393      Ni  0.48121769  0.27059939  0.73890187     1.26100
H394        H  0.48962260  0.26342450  0.78801095     0.38800
O395        O  0.40110544  0.48801044  0.79573760    -0.81200
O396        O  0.53794057  0.44614074  0.70181440    -0.65900
O397        O  0.48729289  0.46855664  0.77297095    -1.12500
C398        C  0.50154769  0.09325362  0.74178270     1.05700
O399        O  0.59306112  0.48774732  0.70814250    -0.79100
O400        O  0.59403155  0.03399220  0.75241794    -0.66700
Ni401      Ni  0.43532080  0.44294466  0.78726192     1.34900
C402        C  0.58167407  0.03263294  0.77787304     0.84400
O403        O  0.51409979  0.40366243  0.74474912    -0.79600
O404        O  0.46460608  0.39536449  0.78036958    -0.89900
C405        C  0.57832565  0.45749287  0.69749591     0.84000
O406        O  0.40193415  0.43945495  0.75320337    -0.68100
O407        O  0.53373390  0.08140948  0.72590124    -0.87400
C408        C  0.41139367  0.44249958  0.72744449     0.84800
C409        C  0.49402743  0.38328309  0.76269696     1.06400
H410        H  0.48378251  0.01304962  0.71667006     0.38200
O411        O  0.50729800  0.00821571  0.73048547    -1.10000
O412        O  0.54017666  0.02796388  0.78504391    -0.66700
Ni413      Ni  0.48255539  0.02064636  0.76606504     1.26300
O414        O  0.45176150  0.44970951  0.71880124    -0.66900
O415        O  0.47821337  0.07258453  0.75794465    -0.79200
C416        C  0.41492584  0.01897377  0.80561050     0.84200
O417        O  0.45504525  0.03057464  0.80115691    -0.66400
Ni418      Ni  0.56103597  0.03331126  0.71787720     1.27400
Ni419      Ni  0.51073622  0.45593107  0.73706412     1.26100
H420        H  0.51168767  0.46422804  0.78628451     0.38800
C421        C  0.28503503  0.11168377  0.86405639     0.02000
C422        C  0.28573121  0.15091272  0.86595075     0.01900
C423        C  0.25373805  0.16927727  0.88336461    -0.18600
C424        C  0.22119697  0.14862996  0.89860286     0.02000
C425        C  0.21945822  0.10943283  0.89519456     0.01900
C426        C  0.25165370  0.09152058  0.87822314    -0.18600
H427        H  0.25065704  0.06146248  0.87588407     0.04000
H428        H  0.25445691  0.19935110  0.88525073     0.04000
O429        O  0.90382827  0.23869165  0.95646600    -0.81200
O430        O  0.03730153  0.28206504  0.55214334    -0.65900
O431        O  0.98822617  0.25846525  0.98074338    -1.12500
C432        C  0.00126416  0.13393584  0.51432013     1.05700
O433        O  0.09177426  0.23912805  0.54784659    -0.79100
O434        O  0.09317192  0.18963905  0.00569480    -0.66700
Ni435      Ni  0.93573728  0.28388288  0.96632756     1.34900
C436        C  0.08417894  0.19189392  0.97976210     0.84400
O437        O  0.01520097  0.32347446  0.50832456    -0.79600
O438        O  0.96248143  0.33188043  0.97444910    -0.89900
C439        C  0.07749085  0.27045917  0.55695441     0.84000
O440        O  0.90099354  0.28553780  0.49997043    -0.68100
O441        O  0.02970916  0.14629605  0.53242223    -0.87400
C442        C  0.91117890  0.28471607  0.52576294     0.84800
C443        C  0.99304621  0.34395361  0.99128495     1.06400
H444        H  0.98179571  0.21543603  0.53693067     0.38200
O445        O  0.00663390  0.21949408  0.52393056    -1.10000
O446        O  0.04412453  0.19926656  0.97050906    -0.66700
Ni447      Ni  0.98455902  0.20623943  0.98777312     1.26300
O448        O  0.95199460  0.27938320  0.53447453    -0.66900
O449        O  0.98159229  0.15408384  0.99591806    -0.79200
C450        C  0.91822175  0.20762748  0.94691487     0.84200
O451        O  0.95833703  0.19577637  0.95214405    -0.66400
Ni452      Ni  0.05834194  0.19397335  0.53924662     1.27400
Ni453      Ni  0.01100311  0.27157561  0.51672956     1.26100
H454        H  0.01262055  0.26281543  0.96748723     0.38800
O455        O  0.09599337  0.48955184  0.96183645    -0.81200
O456        O  0.94716836  0.44618239  0.54882976    -0.65900
O457        O  0.00854569  0.46906230  0.98111602    -1.12500
C458        C  0.99106331  0.09402013  0.51409154     1.05700
O459        O  0.89495365  0.49017675  0.54227694    -0.79100
O460        O  0.90066400  0.03952655  0.00062106    -0.66700
Ni461      Ni  0.06399242  0.44403932  0.97086405     1.34900
C462        C  0.91272668  0.03568602  0.97525138     0.84400
O463        O  0.97582200  0.40464725  0.50611407    -0.79600
O464        O  0.03719349  0.39581694  0.97821660    -0.89900
C465        C  0.90701603  0.45884656  0.55230048     0.84000
O466        O  0.09283849  0.44479483  0.50671479    -0.68100
O467        O  0.96097021  0.08187251  0.53110771    -0.87400
C468        C  0.07706292  0.44476157  0.53147411     0.84800
C469        C  0.00245621  0.38392873  0.99171773     1.06400
H470        H  0.00662825  0.01223890  0.53732530     0.38200
O471        O  0.98353292  0.00841935  0.52309439    -1.10000
O472        O  0.95356532  0.02728907  0.96802016    -0.66700
Ni473      Ni  0.01063270  0.02130839  0.98827548     1.26300
O474        O  0.03447517  0.44801925  0.53674252    -0.66900
O475        O  0.01210048  0.07369666  0.99628257    -0.79200
C476        C  0.08224547  0.02002717  0.95095807     0.84200
O477        O  0.04135875  0.03129957  0.95414429    -0.66400
Ni478      Ni  0.93050907  0.03468075  0.53587028     1.27400
Ni479      Ni  0.97930315  0.45640561  0.51526055     1.26100
H480        H  0.98698300  0.46434361  0.96616453     0.38800
C481        C  0.27765704  0.39970542  0.64430160     0.02000
C482        C  0.27802705  0.36030876  0.64272502     0.01900
C483        C  0.24428437  0.34181600  0.62753478    -0.18600
C484        C  0.21043292  0.36151487  0.61324454     0.02000
C485        C  0.21124337  0.40091751  0.61293396     0.01900
C486        C  0.24495963  0.41986590  0.62863326    -0.18600
H487        H  0.24460011  0.45002814  0.62951370     0.04000
H488        H  0.24406691  0.31159127  0.62706831     0.04000
C489        C  0.71051432  0.36499542  0.64091926     0.02000
C490        C  0.71016831  0.32572554  0.63967845     0.01900
C491        C  0.74274328  0.30702226  0.62293081    -0.18600
C492        C  0.77593908  0.32735053  0.60802792     0.02000
C493        C  0.77717376  0.36659497  0.61083210     0.01900
C494        C  0.74421319  0.38491363  0.62690670    -0.18600
H495        H  0.74461588  0.41508231  0.62840430     0.04000
H496        H  0.74194817  0.27692508  0.62125810     0.04000
C497        C  0.88844747  0.41304463  0.58926703    -0.26600
C498        C  0.87315602  0.43587463  0.56731810    -0.14700
C499        C  0.82630142  0.43546018  0.55963614     0.35900
C500        C  0.79608944  0.41208332  0.57404854    -0.26100
C501        C  0.81138368  0.38967274  0.59615844    -0.15300
C502        C  0.85808982  0.39046746  0.60412977     0.37000
N503        N  0.87564905  0.37009501  0.62771645    -0.89600
H504        H  0.92423516  0.41343805  0.59542898     0.18100
H505        H  0.76021648  0.41134132  0.56810241     0.18100
N506        N  0.80971982  0.95770401  0.53673594    -0.88600
H507        H  0.84988204  0.35590847  0.63833792     0.35500
H508        H  0.89879710  0.35016813  0.62011893     0.40600
H509        H  0.80980196  0.98549368  0.54333540     0.40200
H510        H  0.77548755  0.95141879  0.53230787     0.35100
C511        C  0.15695011  0.44698602  0.55033013    -0.26600
C512        C  0.11013872  0.43975529  0.55501594    -0.14700
C513        C  0.09661889  0.42549980  0.58139149     0.35900
C514        C  0.13026061  0.41744685  0.60166940    -0.26100
C515        C  0.17710417  0.42152088  0.59576699    -0.15300
C516        C  0.19034677  0.43769283  0.57032334     0.37000
N517        N  0.23795353  0.44241041  0.56398099    -0.89600
H518        H  0.16807021  0.45837734  0.53049505     0.18100
H519        H  0.12023131  0.40478637  0.62127472     0.18100
N520        N  0.04938152  0.41691853  0.58696772    -0.88600
H521        H  0.24342815  0.47057403  0.55968082     0.35500
H522        H  0.24535762  0.42713598  0.54584214     0.40600
H523        H  0.04027310  0.39467138  0.57393265     0.40200
H524        H  0.04534824  0.40748595  0.60750579     0.35100
C525        C  0.87894391  0.27955996  0.57437828    -0.26600
C526        C  0.87367350  0.29132891  0.54644977    -0.14700
C527        C  0.83299408  0.31060449  0.53882313     0.35900
C528        C  0.79959856  0.31810167  0.55916454    -0.26100
C529        C  0.80646537  0.30883542  0.58730736    -0.15300
C530        C  0.84592410  0.28808081  0.59492441     0.37000
N531        N  0.85485989  0.27682058  0.62328273    -0.89600
H532        H  0.90957263  0.26444409  0.58052390     0.18100
H533        H  0.76932505  0.33401206  0.55344783     0.18100
N534        N  0.82664684  0.32455745  0.51087591    -0.88600
H535        H  0.85529899  0.24770360  0.62362480     0.35500
H536        H  0.82874687  0.28525933  0.63683200     0.40600
H537        H  0.85069858  0.34568017  0.50783892     0.40200
H538        H  0.79437228  0.33703302  0.50865933     0.35100
C539        C  0.11025814  0.29685915  0.60040887    -0.26600
C540        C  0.10983424  0.29522216  0.57114986    -0.14700
C541        C  0.14117041  0.31646480  0.55551145     0.35900
C542        C  0.17345299  0.33849365  0.56961299    -0.26100
C543        C  0.17447250  0.33968475  0.59891943    -0.15300
C544        C  0.14251327  0.31892631  0.61453551     0.37000
N545        N  0.14351850  0.32000943  0.64463083    -0.89600
H546        H  0.08588717  0.28046231  0.61217881     0.18100
H547        H  0.19825979  0.35441129  0.55781382     0.18100
N548        N  0.14039560  0.31510008  0.52542446    -0.88600
H549        H  0.11805952  0.30287660  0.65293153     0.35500
H550        H  0.13556928  0.34720790  0.65090713     0.40600
H551        H  0.10924959  0.32666665  0.51885077     0.40200
H552        H  0.16621647  0.33188364  0.51712834     0.35100
C553        C  0.11941545  0.19814884  0.93195225    -0.26600
C554        C  0.12226802  0.18461282  0.95956771    -0.14700
C555        C  0.16117314  0.16311916  0.96738065     0.35900
C556        C  0.19539788  0.15547756  0.94756246    -0.26100
C557        C  0.19092922  0.16682901  0.91967544    -0.15300
C558        C  0.15327388  0.18924972  0.91186103     0.37000
N559        N  0.14880198  0.20180264  0.88344064    -0.89600
H560        H  0.09009877  0.21488451  0.92581606     0.18100
H561        H  0.22426003  0.13795303  0.95333286     0.18100
N562        N  0.16481100  0.14721685  0.99491204    -0.88600
H563        H  0.11932243  0.21821178  0.88116390     0.35500
H564        H  0.14428681  0.17838340  0.87068314     0.40600
H565        H  0.13895732  0.12728135  0.99675076     0.40200
H566        H  0.19588730  0.13291171  0.99730169     0.35100
C567        C  0.13755867  0.09349673  0.90430792    -0.26600
C568        C  0.18420182  0.08636912  0.90921381    -0.14700
C569        C  0.19694286  0.05763752  0.92757185     0.35900
C570        C  0.16309396  0.03627132  0.94048249    -0.26100
C571        C  0.11615938  0.04353139  0.93606320    -0.15300
C572        C  0.10328093  0.07305785  0.91801530     0.37000
N573        N  0.05579940  0.08211666  0.91337117    -0.89600
H574        H  0.12788895  0.11546389  0.88996852     0.18100
H575        H  0.17387623  0.51430711  0.95456903     0.18100
N576        N  0.24431967  0.05066936  0.93367940    -0.88600
H577        H  0.05253292  0.10254541  0.89793270     0.35500
H578        H  0.04331778  0.09427178  0.93179863     0.40600
H579        H  0.25172222  0.02300951  0.92835872     0.40200
H580        H  0.24911090  0.55376269  0.95526232     0.35100
C581        C  0.63405463  0.39433231  0.64334980    -0.26600
C582        C  0.67583931  0.38645496  0.65663182    -0.14700
C583        C  0.68537057  0.40203988  0.68316850     0.35900
C584        C  0.65270962  0.42529194  0.69569272    -0.26100
C585        C  0.61081119  0.43329951  0.68244652    -0.15300
C586        C  0.60127202  0.41760436  0.65584104     0.37000
N587        N  0.55985079  0.42539851  0.64048050    -0.89600
H588        H  0.62737445  0.38302209  0.62267369     0.18100
H589        H  0.65998138  0.43697968  0.71618453     0.18100
N590        N  0.72738737  0.39480382  0.69804147    -0.88600
H591        H  0.56926815  0.93783369  0.62158338     0.35500
H592        H  0.53913796  0.94487371  0.65070061     0.40600
H593        H  0.74519537  0.41993716  0.69955223     0.40200
H594        H  0.74861010  0.37617523  0.68727702     0.35100
C595        C  0.30003493  0.40944905  0.69347968    -0.26600
C596        C  0.30724517  0.41846300  0.66537776    -0.14700
C597        C  0.34587787  0.43971316  0.65801734     0.35900
C598        C  0.37894469  0.44820296  0.67873196    -0.26100
C599        C  0.37357691  0.43642828  0.70671735    -0.15300
C600        C  0.33231953  0.41776061  0.71404477     0.37000
N601        N  0.32260529  0.40505680  0.74181893    -0.89600
H602        H  0.26993990  0.39360277  0.69926879     0.18100
H603        H  0.40937652  0.46348687  0.67286067     0.18100
N604        N  0.35154195  0.45233042  0.62969894    -0.88600
H605        H  0.32050178  0.42796557  0.75533005     0.35500
H606        H  0.34851375  0.38675228  0.74824332     0.40600
H607        H  0.35498928  0.42906451  0.61668104     0.40200
H608        H  0.38181282  0.46759285  0.62777029     0.35100
C609        C  0.33824105  0.04813235  0.80946967    -0.26600
C610        C  0.38241770  0.04331003  0.82054947    -0.14700
C611        C  0.39536256  0.06282189  0.84493221     0.35900
C612        C  0.36310471  0.08585340  0.85832539    -0.26100
C613        C  0.31886303  0.09052421  0.84732741    -0.15300
C614        C  0.30652896  0.07211055  0.82221739     0.37000
N615        N  0.26242607  0.07695382  0.80914556    -0.89600
H616        H  0.32861106  0.03377059  0.79035489     0.18100
H617        H  0.37206779  0.09951155  0.87781801     0.18100
N618        N  0.44073284  0.05846469  0.85631320    -0.88600
H619        H  0.26800927  0.08839671  0.78933920     0.35500
H620        H  0.24208879  0.09621878  0.81991546     0.40600
H621        H  0.44438235  0.03076720  0.86266972     0.40200
H622        H  0.44473732  0.07495039  0.87423676     0.35100
C623        C  0.65901817  0.28286115  0.70414280    -0.26600
C624        C  0.61169924  0.28538917  0.69833725    -0.14700
C625        C  0.59769754  0.29471910  0.67074956     0.35900
C626        C  0.63103717  0.30439940  0.65073676    -0.26100
C627        C  0.67776654  0.30494472  0.65761026    -0.15300
C628        C  0.69188275  0.29267003  0.68411162     0.37000
N629        N  0.73961111  0.29207325  0.69122249    -0.89600
H630        H  0.67077537  0.27482402  0.72479523     0.18100
H631        H  0.62042148  0.31366028  0.63015224     0.18100
N632        N  0.54989282  0.29639930  0.66345176    -0.88600
H633        H  0.74443052  0.30929663  0.70866827     0.35500
H634        H  0.74834712  0.26487430  0.69696945     0.40600
H635        H  0.53745360  0.26913578  0.66364696     0.40200
H636        H  0.54563689  0.30598017  0.64295709     0.35100
C637        C  0.29643235  0.31418892  0.67958736    -0.26600
C638        C  0.31190155  0.33729320  0.65803370    -0.14700
C639        C  0.35874404  0.33763910  0.65094641     0.35900
C640        C  0.38958859  0.31544154  0.66613824    -0.26100
C641        C  0.37421631  0.29209114  0.68767532    -0.15300
C642        C  0.32709939  0.29171849  0.69467130     0.37000
N643        N  0.31065462  0.26920172  0.71736269    -0.89600
H644        H  0.26028614  0.31416746  0.68487178     0.18100
H645        H  0.42565726  0.31568298  0.66068442     0.18100
N646        N  0.37457883  0.35991371  0.62801675    -0.88600
H647        H  0.27505946  0.27169302  0.71935005     0.35500
H648        H  0.32476431  0.27976195  0.73588042     0.40600
H649        H  0.35957024  0.34954070  0.60971141     0.40200
H650        H  0.41006172  0.35714107  0.62556783     0.35100
C651        C  0.30180923  0.17743035  0.81969072    -0.26600
C652        C  0.31670722  0.17199311  0.84720706    -0.14700
C653        C  0.36313444  0.17903012  0.85402302     0.35900
C654        C  0.39421991  0.18791364  0.83253948    -0.26100
C655        C  0.38002714  0.19041310  0.80439054    -0.15300
C656        C  0.33260593  0.18667926  0.79835384     0.37000
N657        N  0.31537779  0.19101794  0.77043822    -0.89600
H658        H  0.26627859  0.17213083  0.81434101     0.18100
H659        H  0.43006675  0.19140081  0.83786880     0.18100
N660        N  0.38032509  0.17561070  0.88212506    -0.88600
H661        H  0.29053405  0.21212040  0.77064696     0.35500
H662        H  0.29944817  0.16617007  0.76450248     0.40600
H663        H  0.35399541  0.16955437  0.89616815     0.40200
H664        H  0.39307874  0.20162746  0.88808898     0.35100
C665        C  0.80784041  0.07311375  0.93694408    -0.26600
C666        C  0.81487028  0.05945549  0.90977977    -0.14700
C667        C  0.85058753  0.03350585  0.90501324     0.35900
C668        C  0.88175174  0.02548212  0.92667570    -0.26100
C669        C  0.87740257  0.04232357  0.95325912    -0.15300
C670        C  0.83925570  0.06598295  0.95846605     0.37000
N671        N  0.83372292  0.08449186  0.98503897    -0.84000
H672        H  0.77934607  0.09192295  0.94080720     0.18100
H673        H  0.90979971  0.00631200  0.92260182     0.18100
N674        N  0.85621301  0.01521075  0.87850934    -0.88600
H675        H  0.80351201  0.10030373  0.98543646     0.35500
H676        H  0.86067747  0.10341445  0.98715495     0.40600
H677        H  0.85901201  0.03518331  0.86277915     0.40200
H678        H  0.82680964  0.99953222  0.87454850     0.35100
C679        C  0.80934251  0.16165147  0.92092449    -0.26600
C680        C  0.82605759  0.13967563  0.89886116    -0.14700
C681        C  0.87310819  0.14051162  0.89214587     0.35900
C682        C  0.90286213  0.16253644  0.90834216    -0.26100
C683        C  0.88622059  0.18415171  0.93069852    -0.15300
C684        C  0.83892789  0.18344212  0.93721698     0.37000
N685        N  0.82123224  0.20417820  0.96070328    -0.89600
H686        H  0.77304587  0.16107631  0.92579281     0.18100
H687        H  0.93903093  0.16338262  0.90319799     0.18100
N688        N  0.89015172  0.12027185  0.86831795    -0.88600
H689        H  0.78573867  0.20083692  0.96239932     0.35500
H690        H  0.83556593  0.19275409  0.97884290     0.40600
H691        H  0.88807178  0.09203832  0.87304011     0.40200
H692        H  0.92497138  0.12575787  0.86526798     0.35100
C693        C  0.66389752  0.03237306  0.79236489    -0.26600
C694        C  0.61760489  0.03762482  0.79987067    -0.14700
C695        C  0.60759230  0.05019900  0.82745549     0.35900
C696        C  0.64346604  0.05919291  0.84574600    -0.26100
C697        C  0.68943170  0.05671319  0.83730235    -0.15300
C698        C  0.69979416  0.04192907  0.81053317     0.37000
N699        N  0.74606509  0.03768457  0.80055097    -0.89600
H700        H  0.67255636  0.02202685  0.77167557     0.18100
H701        H  0.63527940  0.07068731  0.86615775     0.18100
N702        N  0.56167600  0.05624036  0.83717118    -0.88600
H703        H  0.75047207  0.05618971  0.78392273     0.35500
H704        H  0.77015206  0.04475793  0.81579588     0.40600
H705        H  0.54409824  0.03094849  0.83666918     0.40200
H706        H  0.54541903  0.07547164  0.82405603     0.35100
C707        C  0.62317348  0.17992170  0.84346526    -0.26600
C708        C  0.62099069  0.18259884  0.81429360    -0.14700
C709        C  0.65267492  0.16267864  0.79754272     0.35900
C710        C  0.68628590  0.14064226  0.81028708    -0.26100
C711        C  0.68908545  0.13850417  0.83949579    -0.15300
C712        C  0.65728614  0.15818112  0.85631636     0.37000
N713        N  0.66033640  0.15638124  0.88633934    -0.89600
H714        H  0.59879777  0.19535390  0.85617304     0.18100
H715        H  0.71072420  0.12554150  0.79740740     0.18100
N716        N  0.65124896  0.16430937  0.76758382    -0.88600
H717        H  0.63483954  0.17287399  0.89560462     0.35500
H718        H  0.65383218  0.12892275  0.89228531     0.40600
H719        H  0.65564640  0.19198512  0.76145678     0.40200
H720        H  0.61887127  0.15551853  0.76094533     0.35100
C721        C  0.72603020  0.61634362  0.35263210     0.02000
C722        C  0.72439639  0.57708187  0.35391294     0.01900
C723        C  0.75541068  0.55797671  0.37144714    -0.18600
C724        C  0.78882954  0.57772206  0.38676423     0.02000
C725        C  0.79290679  0.61675400  0.38284541     0.01900
C726        C  0.76111197  0.63551536  0.36617552    -0.18600
H727        H  0.76242052  0.66565229  0.36475078     0.04000
H728        H  0.75201819  0.52817600  0.37411392     0.04000
O729        O  0.59975724  0.73752152  0.29065167    -0.81200
O730        O  0.44852897  0.78042130  0.20546273    -0.65900
O731        O  0.51100491  0.75828741  0.27302649    -1.12500
C732        C  0.49126865  0.63313513  0.24207866     1.05700
O733        O  0.39531270  0.73798206  0.21334802    -0.79100
O734        O  0.40131517  0.69075635  0.25648023    -0.66700
Ni735      Ni  0.56652876  0.78316471  0.28287466     1.34900
C736        C  0.41485113  0.69451475  0.28156837     0.84400
O737        O  0.47894136  0.82272202  0.24710197    -0.79600
O738        O  0.53838328  0.83138071  0.27653821    -0.89900
C739        C  0.40795232  0.76870252  0.20266859     0.84000
O740        O  0.59425685  0.78338947  0.24673241    -0.68100
O741        O  0.45897311  0.64511665  0.22642889    -0.87400
C742        C  0.57856119  0.78135187  0.22198530     0.84800
C743        C  0.50433504  0.84334188  0.26225307     1.06400
H744        H  0.50621405  0.71360842  0.21725213     0.38200
O745        O  0.48405218  0.71832588  0.23188986    -1.10000
O746        O  0.45674311  0.70054357  0.28781324    -0.66700
Ni747      Ni  0.51284718  0.70591362  0.26634146     1.26300
O748        O  0.53611055  0.77701476  0.21688226    -0.66900
O749        O  0.51454796  0.65361143  0.25854859    -0.79200
C750        C  0.58658641  0.70706921  0.30152213     0.84200
O751        O  0.54546507  0.69619711  0.29989305    -0.66400
Ni752      Ni  0.42976156  0.69284878  0.22069368     1.27400
Ni753      Ni  0.48121764  0.77059933  0.23890169     1.26100
H754        H  0.48962268  0.76342435  0.28801075     0.38800
O755        O  0.40110529  0.98800991  0.29573785    -0.81200
O756        O  0.53793992  0.94614063  0.20181417    -0.65900
O757        O  0.48729274  0.96855646  0.27297095    -1.12500
C758        C  0.50154794  0.59325366  0.24178227     1.05700
O759        O  0.59306057  0.98774712  0.20814227    -0.79100
O760        O  0.59403165  0.53399326  0.25241793    -0.66700
Ni761      Ni  0.43532083  0.94294428  0.28726206     1.34900
C762        C  0.58167436  0.53263330  0.27787306     0.84400
O763        O  0.51409941  0.90366227  0.24474894    -0.79600
O764        O  0.46460627  0.89536421  0.28036965    -0.89900
C765        C  0.57832496  0.95749280  0.19749558     0.84000
O766        O  0.40193389  0.93945455  0.25320356    -0.68100
O767        O  0.53373360  0.58140948  0.22590043    -0.87400
C768        C  0.41139317  0.94249947  0.22744466     0.84800
C769        C  0.49402744  0.88328288  0.26269690     1.06400
H770        H  0.48378286  0.51304965  0.21667012     0.38200
O771        O  0.50729840  0.50821576  0.23048551    -1.10000
O772        O  0.54017710  0.52796357  0.28504398    -0.66700
Ni773      Ni  0.48255583  0.52064648  0.26606505     1.26300
O774        O  0.45176093  0.94970949  0.21880133    -0.66900
O775        O  0.47821435  0.57258470  0.25794472    -0.79200
C776        C  0.41492599  0.51897398  0.30561041     0.84200
O777        O  0.45504545  0.53057482  0.30115685    -0.66400
Ni778      Ni  0.56103625  0.53331128  0.21787707     1.27400
Ni779      Ni  0.51073582  0.95593093  0.23706401     1.26100
H780        H  0.51168751  0.96422804  0.28628438     0.38800
C781        C  0.28503503  0.61168390  0.36405616     0.02000
C782        C  0.28573084  0.65091289  0.36595036     0.01900
C783        C  0.25373721  0.66927733  0.38336396    -0.18600
C784        C  0.22119605  0.64862988  0.39860205     0.02000
C785        C  0.21945769  0.60943270  0.39519388     0.01900
C786        C  0.25165362  0.59152052  0.37822275    -0.18600
H787        H  0.25065730  0.56146242  0.37588378     0.04000
H788        H  0.25445587  0.69935117  0.38525006     0.04000
O789        O  0.90382859  0.73869190  0.45646568    -0.81200
O790        O  0.03730166  0.78206484  0.05214331    -0.65900
O791        O  0.98822633  0.75846546  0.48074318    -1.12500
C792        C  0.00126456  0.63393568  0.01432003     1.05700
O793        O  0.09177446  0.73912793  0.04784650    -0.79100
O794        O  0.09317180  0.68963859  0.50569444    -0.66700
Ni795      Ni  0.93573752  0.78388309  0.46632738     1.34900
C796        C  0.08417888  0.69189386  0.47976176     0.84400
O797        O  0.01520060  0.82347429  0.00832465    -0.79600
O798        O  0.96248165  0.83188061  0.47444900    -0.89900
C799        C  0.07749110  0.77045910  0.05695422     0.84000
O800        O  0.90099394  0.78553829  0.99997056    -0.68100
O801        O  0.02970970  0.64629590  0.03242205    -0.87400
C802        C  0.91117913  0.78471602  0.02576307     0.84800
C803        C  0.99304634  0.84395378  0.49128490     1.06400
H804        H  0.98179603  0.71543563  0.03693070     0.38200
O805        O  0.00663412  0.71949383  0.02393054    -1.10000
O806        O  0.04412459  0.69926695  0.47050874    -0.66700
Ni807      Ni  0.98455921  0.70623961  0.48777285     1.26300
O808        O  0.95199467  0.77938260  0.03447469    -0.66900
O809        O  0.98159280  0.65408401  0.49591775    -0.79200
C810        C  0.91822203  0.70762772  0.44691459     0.84200
O811        O  0.95833728  0.69577656  0.45214376    -0.66400
Ni812      Ni  0.05834227  0.69397322  0.03924650     1.27400
Ni813      Ni  0.01100311  0.77157538  0.01672958     1.26100
H814        H  0.01262053  0.76281565  0.46748712     0.38800
O815        O  0.09599290  0.98955217  0.46183619    -0.81200
O816        O  0.94716809  0.94618190  0.04882939    -0.65900
O817        O  0.00854542  0.96906256  0.48111594    -1.12500
C818        C  0.99106379  0.59401996  0.01409144     1.05700
O819        O  0.89495356  0.99017637  0.04227649    -0.79100
O820        O  0.90066404  0.53952643  0.50062110    -0.66700
Ni821      Ni  0.06399221  0.94403965  0.47086400     1.34900
C822        C  0.91272688  0.53568617  0.47525142     0.84400
O823        O  0.97582191  0.90464694  0.00611374    -0.79600
O824        O  0.03719366  0.89581719  0.47821676    -0.89900
C825        C  0.90701574  0.95884609  0.05229995     0.84000
O826        O  0.09283852  0.94479477  0.00671478    -0.68100
O827        O  0.96097052  0.58187241  0.03110750    -0.87400
C828        C  0.07706280  0.94476120  0.03147404     0.84800
C829        C  0.00245625  0.88392891  0.49171773     1.06400
H830        H  0.00662874  0.51223879  0.03732546     0.38200
O831        O  0.98353333  0.50841920  0.02309445    -1.10000
O832        O  0.95356558  0.52728951  0.46802020    -0.66700
Ni833      Ni  0.01063282  0.52130865  0.48827558     1.26300
O834        O  0.03447497  0.94801864  0.03674238    -0.66900
O835        O  0.01210079  0.57369690  0.49628268    -0.79200
C836        C  0.08224553  0.52002714  0.45095802     0.84200
O837        O  0.04135894  0.53129978  0.45414441    -0.66400
Ni838      Ni  0.93050946  0.53468064  0.03587024     1.27400
Ni839      Ni  0.97930309  0.95640524  0.01526032     1.26100
H840        H  0.98698278  0.96434385  0.46616443     0.38800
C841        C  0.27765677  0.89970549  0.14430160     0.02000
C842        C  0.27802697  0.86030882  0.14272481     0.01900
C843        C  0.24428469  0.84181612  0.12753419    -0.18600
C844        C  0.21043333  0.86151504  0.11324389     0.02000
C845        C  0.21124333  0.90091768  0.11293379     0.01900
C846        C  0.24495933  0.91986603  0.12863331    -0.18600
H847        H  0.24459958  0.95002826  0.12951396     0.04000
H848        H  0.24406739  0.81159139  0.12706748     0.04000
C849        C  0.71051299  0.86499538  0.14091836     0.02000
C850        C  0.71016763  0.82572553  0.13967802     0.01900
C851        C  0.74274314  0.80702223  0.12293076    -0.18600
C852        C  0.77593883  0.82735053  0.10802780     0.02000
C853        C  0.77717293  0.86659501  0.11083160     0.01900
C854        C  0.74421178  0.88491357  0.12690577    -0.18600
H855        H  0.74461404  0.91508230  0.12840310     0.04000
H856        H  0.74194847  0.77692501  0.12125839     0.04000
C857        C  0.88844660  0.91304505  0.08926695    -0.26600
C858        C  0.87315556  0.93587425  0.06731748    -0.14700
C859        C  0.82630115  0.93545951  0.05963520     0.35900
C860        C  0.79608906  0.91208291  0.07404774    -0.26100
C861        C  0.81138294  0.88967286  0.09615805    -0.15300
C862        C  0.85808884  0.89046814  0.10412981     0.37000
N863        N  0.87564776  0.87009657  0.12771699    -0.89600
H864        H  0.92423412  0.91343894  0.09542923     0.18100
H865        H  0.76021623  0.91134063  0.06810134     0.18100
N866        N  0.80971955  0.45770581  0.03673801    -0.88600
H867        H  0.84988060  0.85591013  0.13833843     0.35500
H868        H  0.89879626  0.85016966  0.12012004     0.40600
H869        H  0.80980166  0.48549520  0.04333811     0.40200
H870        H  0.77548721  0.45142063  0.03231011     0.35100
C871        C  0.15694997  0.94698533  0.05032991    -0.26600
C872        C  0.11013855  0.93975495  0.05501586    -0.14700
C873        C  0.09661875  0.92549993  0.08139152     0.35900
C874        C  0.13026057  0.91744721  0.10166938    -0.26100
C875        C  0.17710413  0.92152106  0.09576689    -0.15300
C876        C  0.19034671  0.93769243  0.07032307     0.37000
N877        N  0.23795346  0.94240942  0.06398045    -0.89600
H878        H  0.16807010  0.95837619  0.03049469     0.18100
H879        H  0.12023130  0.90478692  0.12127477     0.18100
N880        N  0.04938137  0.91691880  0.08696786    -0.88600
H881        H  0.24342836  0.97057274  0.05967936     0.35500
H882        H  0.24535730  0.92713396  0.04584206     0.40600
H883        H  0.04027311  0.89467113  0.07393326     0.40200
H884        H  0.04534797  0.90748701  0.10750613     0.35100
C885        C  0.87894426  0.77956044  0.07437846    -0.26600
C886        C  0.87367365  0.79132888  0.04644983    -0.14700
C887        C  0.83299405  0.81060415  0.03882308     0.35900
C888        C  0.79959853  0.81810124  0.05916447    -0.26100
C889        C  0.80646542  0.80883538  0.08730739    -0.15300
C890        C  0.84592441  0.78808125  0.09492457     0.37000
N891        N  0.85486036  0.77682137  0.12328296    -0.89600
H892        H  0.90957318  0.76444490  0.08052418     0.18100
H893        H  0.76932476  0.83401121  0.05344762     0.18100
N894        N  0.82664644  0.82455677  0.01087573    -0.88600
H895        H  0.85530062  0.74770438  0.12362511     0.35500
H896        H  0.82874680  0.78525943  0.13683208     0.40600
H897        H  0.85069953  0.84567833  0.00783795     0.40200
H898        H  0.79437263  0.83703377  0.00865944     0.35100
C899        C  0.11025876  0.79685928  0.10040841    -0.26600
C900        C  0.10983459  0.79522221  0.07114942    -0.14700
C901        C  0.14117039  0.81646500  0.05551088     0.35900
C902        C  0.17345299  0.83849401  0.06961229    -0.26100
C903        C  0.17447292  0.83968497  0.09891875    -0.15300
C904        C  0.14251396  0.81892642  0.11453493     0.37000
N905        N  0.14351959  0.82000934  0.14463024    -0.89600
H906        H  0.08588794  0.78046245  0.11217845     0.18100
H907        H  0.19825948  0.85441185  0.05781303     0.18100
N908        N  0.14039497  0.81510036  0.02542390    -0.88600
H909        H  0.11806068  0.80287652  0.15293103     0.35500
H910        H  0.13557062  0.84720781  0.15090669     0.40600
H911        H  0.10924851  0.82666632  0.01885049     0.40200
H912        H  0.16621501  0.83188464  0.01712764     0.35100
C913        C  0.11941512  0.69814904  0.43195194    -0.26600
C914        C  0.12226785  0.68461281  0.45956733    -0.14700
C915        C  0.16117293  0.66311899  0.46738008     0.35900
C916        C  0.19539731  0.65547725  0.44756172    -0.26100
C917        C  0.19092836  0.66682871  0.41967474    -0.15300
C918        C  0.15327318  0.68924972  0.41186055     0.37000
N919        N  0.14880092  0.70180260  0.38344020    -0.89600
H920        H  0.09009851  0.71488484  0.42581586     0.18100
H921        H  0.22425946  0.63795263  0.45333197     0.18100
N922        N  0.16481101  0.64721666  0.49491144    -0.88600
H923        H  0.11932259  0.71821332  0.38116390     0.35500
H924        H  0.14428334  0.67838342  0.37068295     0.40600
H925        H  0.13895733  0.62728122  0.49675019     0.40200
H926        H  0.19588718  0.63291133  0.49730091     0.35100
C927        C  0.13755824  0.59349617  0.40430731    -0.26600
C928        C  0.18420144  0.58636885  0.40921315    -0.14700
C929        C  0.19694266  0.55763741  0.42757129     0.35900
C930        C  0.16309392  0.53627129  0.44048211    -0.26100
C931        C  0.11615930  0.54353115  0.43606288    -0.15300
C932        C  0.10328067  0.57305723  0.41801473     0.37000
N933        N  0.05579910  0.58211566  0.41337045    -0.89600
H934        H  0.12788830  0.61546327  0.38996790     0.18100
H935        H  0.17387572  0.01430687  0.45456869     0.18100
N936        N  0.24431953  0.55066930  0.43367876    -0.88600
H937        H  0.05253232  0.60254319  0.39793111     0.35500
H938        H  0.04331789  0.59427216  0.43179750     0.40600
H939        H  0.25172226  0.52300947  0.42835805     0.40200
H940        H  0.24911089  0.05376171  0.45526209     0.35100
C941        C  0.63405341  0.89433266  0.14334899    -0.26600
C942        C  0.67583800  0.88645490  0.15663097    -0.14700
C943        C  0.68536943  0.90203947  0.18316775     0.35900
C944        C  0.65270877  0.92529166  0.19569214    -0.26100
C945        C  0.61081041  0.93329962  0.18244597    -0.15300
C946        C  0.60127108  0.91760491  0.15584035     0.37000
N947        N  0.55984998  0.92539976  0.14047985    -0.89600
H948        H  0.62737316  0.88302272  0.12267281     0.18100
H949        H  0.65998059  0.93697904  0.21618403     0.18100
N950        N  0.72738614  0.89480298  0.19804066    -0.88600
H951        H  0.56926981  0.43783261  0.12158419     0.35500
H952        H  0.53913887  0.44487223  0.15070125     0.40600
H953        H  0.74519497  0.91993595  0.19955084     0.40200
H954        H  0.74860816  0.87617362  0.18727644     0.35100
C955        C  0.30003430  0.90944909  0.19347979    -0.26600
C956        C  0.30724477  0.91846302  0.16537786    -0.14700
C957        C  0.34587735  0.93971341  0.15801756     0.35900
C958        C  0.37894409  0.94820324  0.17873219    -0.26100
C959        C  0.37357630  0.93642842  0.20671755    -0.15300
C960        C  0.33231881  0.91776080  0.21404491     0.37000
N961        N  0.32260433  0.90505729  0.24181911    -0.89600
H962        H  0.26993924  0.89360285  0.19926888     0.18100
H963        H  0.40937592  0.96348717  0.17286091     0.18100
N964        N  0.35154147  0.95233077  0.12969919    -0.88600
H965        H  0.32050104  0.92796619  0.25533011     0.35500
H966        H  0.34851261  0.88675261  0.24824359     0.40600
H967        H  0.35498947  0.92906481  0.11668140     0.40200
H968        H  0.38181201  0.96759362  0.12777062     0.35100
C969        C  0.33824159  0.54813333  0.30946909    -0.26600
C970        C  0.38241785  0.54331023  0.32054935    -0.14700
C971        C  0.39536242  0.56282145  0.34493247     0.35900
C972        C  0.36310446  0.58585281  0.35832571    -0.26100
C973        C  0.31886319  0.59052439  0.34732732    -0.15300
C974        C  0.30652955  0.57211151  0.32221689     0.37000
N975        N  0.26242714  0.57695566  0.30914465    -0.89600
H976        H  0.32861194  0.53377224  0.29035399     0.18100
H977        H  0.37206719  0.59951035  0.37781863     0.18100
N978        N  0.44073249  0.55846389  0.35631369    -0.88600
H979        H  0.26801107  0.58840017  0.28933891     0.35500
H980        H  0.24208913  0.59621954  0.31991514     0.40600
H981        H  0.44438168  0.53076626  0.36266996     0.40200
H982        H  0.44473691  0.57494928  0.37423740     0.35100
C983        C  0.65901796  0.78286094  0.20414244    -0.26600
C984        C  0.61169902  0.78538890  0.19833699    -0.14700
C985        C  0.59769706  0.79471900  0.17074939     0.35900
C986        C  0.63103658  0.80439957  0.15073659    -0.26100
C987        C  0.67776597  0.80494477  0.15760994    -0.15300
C988        C  0.69188240  0.79266994  0.18411119     0.37000
N989        N  0.73961077  0.79207312  0.19122192    -0.89600
H990        H  0.67077528  0.77482377  0.22479484     0.18100
H991        H  0.62042075  0.81366066  0.13015214     0.18100
N992        N  0.54989229  0.79639913  0.16345167    -0.88600
H993        H  0.74443024  0.80929648  0.20866769     0.35500
H994        H  0.74834674  0.76487421  0.19696892     0.40600
H995        H  0.53745320  0.76913554  0.16364661     0.40200
H996        H  0.54563617  0.80598053  0.14295714     0.35100
C997        C  0.29643216  0.81418856  0.17958691    -0.26600
C998        C  0.31190143  0.83729316  0.15803349    -0.14700
C999        C  0.35874399  0.83763909  0.15094627     0.35900
C1000       C  0.38958854  0.81544144  0.16613806    -0.26100
C1001       C  0.37421614  0.79209100  0.18767510    -0.15300
C1002       C  0.32709912  0.79171810  0.19467087     0.37000
N1003       N  0.31065412  0.76920110  0.21736208    -0.89600
H1004       H  0.26028589  0.81416692  0.18487119     0.18100
H1005       H  0.42565723  0.81568293  0.16068433     0.18100
N1006       N  0.37457880  0.85991392  0.12801678    -0.88600
H1007       H  0.27505871  0.77169132  0.21934867     0.35500
H1008       H  0.32476237  0.77976193  0.23588004     0.40600
H1009       H  0.35956927  0.84954178  0.10971147     0.40200
H1010       H  0.41006148  0.85714039  0.12556737     0.35100
C1011       C  0.30180911  0.67743112  0.31969051    -0.26600
C1012       C  0.31670710  0.67199333  0.34720680    -0.14700
C1013       C  0.36313447  0.67902970  0.35402270     0.35900
C1014       C  0.39421998  0.68791310  0.33253917    -0.26100
C1015       C  0.38002715  0.69041309  0.30439028    -0.15300
C1016       C  0.33260586  0.68668002  0.29835363     0.37000
N1017       N  0.31537770  0.69101952  0.27043809    -0.89600
H1018       H  0.26627834  0.67213205  0.31434083     0.18100
H1019       H  0.43006695  0.69139965  0.33786847     0.18100
N1020       N  0.38032529  0.67560959  0.38212465    -0.88600
H1021       H  0.29053443  0.71212233  0.27064711     0.35500
H1022       H  0.29944747  0.66617202  0.26450210     0.40600
H1023       H  0.35399561  0.66955340  0.39616775     0.40200
H1024       H  0.39307933  0.70162612  0.38808878     0.35100
C1025       C  0.80784102  0.57311427  0.43694408    -0.26600
C1026       C  0.81487071  0.55945586  0.40977978    -0.14700
C1027       C  0.85058783  0.53350612  0.40501329     0.35900
C1028       C  0.88175193  0.52548236  0.42667577    -0.26100
C1029       C  0.87740286  0.54232382  0.45325916    -0.15300
C1030       C  0.83925629  0.56598341  0.45846605     0.37000
N1031       N  0.83372379  0.58449251  0.48503890    -0.84000
H1032       H  0.77934683  0.59192361  0.44080720     0.18100
H1033       H  0.90979984  0.50631214  0.42260196     0.18100
N1034       N  0.85621331  0.51521092  0.37850943    -0.88600
H1035       H  0.80351304  0.60030450  0.48543645     0.35500
H1036       H  0.86067850  0.60341499  0.48715466     0.40600
H1037       H  0.85901243  0.53518341  0.36277923     0.40200
H1038       H  0.82680982  0.49953258  0.37454857     0.35100
C1039       C  0.80934264  0.66165178  0.42092454    -0.26600
C1040       C  0.82605751  0.63967602  0.39886111    -0.14700
C1041       C  0.87310805  0.64051208  0.39214564     0.35900
C1042       C  0.90286212  0.66253694  0.40834181    -0.26100
C1043       C  0.88622080  0.68415200  0.43069831    -0.15300
C1044       C  0.83892817  0.68344232  0.43721698     0.37000
N1045       N  0.82123280  0.70417815  0.46070348    -0.89600
H1046       H  0.77304607  0.66107656  0.42579302     0.18100
H1047       H  0.93903086  0.66338319  0.40319750     0.18100
N1048       N  0.89015131  0.62027211  0.36831775    -0.88600
H1049       H  0.78573921  0.70083707  0.46239948     0.35500
H1050       H  0.83556636  0.69275361  0.47884298     0.40600
H1051       H  0.88807176  0.59203864  0.37304006     0.40200
H1052       H  0.92497090  0.62575839  0.36526755     0.35100
C1053       C  0.66389780  0.53237324  0.29236486    -0.26600
C1054       C  0.61760521  0.53762500  0.29987070    -0.14700
C1055       C  0.60759265  0.55019887  0.32745558     0.35900
C1056       C  0.64346647  0.55919251  0.34574612    -0.26100
C1057       C  0.68943210  0.55671315  0.33730236    -0.15300
C1058       C  0.69979451  0.54192941  0.31053304     0.37000
N1059       N  0.74606539  0.53768528  0.30055066    -0.89600
H1060       H  0.67255649  0.52202712  0.27167548     0.18100
H1061       H  0.63527988  0.57068659  0.36615798     0.18100
N1062       N  0.56167633  0.55624027  0.33717125    -0.88600
H1063       H  0.75047138  0.55618937  0.28392165     0.35500
H1064       H  0.77015244  0.54476035  0.31579505     0.40600
H1065       H  0.54409847  0.53094843  0.33666914     0.40200
H1066       H  0.54541949  0.57547167  0.32405611     0.35100
C1067       C  0.62317264  0.67992081  0.34346502    -0.26600
C1068       C  0.62099068  0.68259852  0.31429337    -0.14700
C1069       C  0.65267560  0.66267885  0.29754265     0.35900
C1070       C  0.68628637  0.64064246  0.31028714    -0.26100
C1071       C  0.68908525  0.63850401  0.33949587    -0.15300
C1072       C  0.65728527  0.65818041  0.35631629     0.37000
N1073       N  0.66033484  0.65638025  0.38633931    -0.89600
H1074       H  0.59879636  0.69535259  0.35617270     0.18100
H1075       H  0.71072513  0.62554202  0.29740755     0.18100
N1076       N  0.65125053  0.66431005  0.26758375    -0.88600
H1077       H  0.63483715  0.67287229  0.39560446     0.35500
H1078       H  0.65383147  0.62892156  0.39228508     0.40600
H1079       H  0.65564802  0.69198592  0.26145702     0.40200
H1080       H  0.61887304  0.65551933  0.26094483     0.35100
C1081       C  0.72603025  0.61634354  0.85263211     0.02000
C1082       C  0.72439638  0.57708179  0.85391293     0.01900
C1083       C  0.75541065  0.55797664  0.87144710    -0.18600
C1084       C  0.78882953  0.57772186  0.88676422     0.02000
C1085       C  0.79290683  0.61675381  0.88284544     0.01900
C1086       C  0.76111207  0.63551529  0.86617553    -0.18600
H1087       H  0.76242068  0.66565220  0.86475080     0.04000
H1088       H  0.75201810  0.52817591  0.87411384     0.04000
O1089       O  0.59975727  0.73752145  0.79065167    -0.81200
O1090       O  0.44852890  0.78042131  0.70546293    -0.65900
O1091       O  0.51100496  0.75828744  0.77302661    -1.12500
C1092       C  0.49126868  0.63313518  0.74207882     1.05700
O1093       O  0.39531264  0.73798209  0.71334824    -0.79100
O1094       O  0.40131525  0.69075628  0.75648040    -0.66700
Ni1095     Ni  0.56652885  0.78316469  0.78287469     1.34900
C1096       C  0.41485113  0.69451474  0.78156854     0.84400
O1097       O  0.47894131  0.82272206  0.74710215    -0.79600
O1098       O  0.53838338  0.83138073  0.77653827    -0.89900
C1099       C  0.40795223  0.76870255  0.70266882     0.84000
O1100       O  0.59425685  0.78338951  0.74673242    -0.68100
O1101       O  0.45897328  0.64511677  0.72642898    -0.87400
C1102       C  0.57856113  0.78135199  0.72198532     0.84800
C1103       C  0.50433505  0.84334192  0.76225322     1.06400
H1104       H  0.50621403  0.71360850  0.71725233     0.38200
O1105       O  0.48405220  0.71832592  0.73189004    -1.10000
O1106       O  0.45674307  0.70054375  0.78781345    -0.66700
Ni1107     Ni  0.51284716  0.70591363  0.76634165     1.26300
O1108       O  0.53611049  0.77701482  0.71688231    -0.66900
O1109       O  0.51454783  0.65361142  0.75854890    -0.79200
C1110       C  0.58658642  0.70706920  0.80152225     0.84200
O1111       O  0.54546506  0.69619715  0.79989323    -0.66400
Ni1112     Ni  0.42976160  0.69284884  0.72069385     1.27400
Ni1113     Ni  0.48121765  0.77059935  0.73890184     1.26100
H1114       H  0.48962290  0.76342439  0.78801077     0.38800
O1115       O  0.40110535  0.98801017  0.79573767    -0.81200
O1116       O  0.53794009  0.94614059  0.70181423    -0.65900
O1117       O  0.48729287  0.96855656  0.77297095    -1.12500
C1118       C  0.50154793  0.59325371  0.74178238     1.05700
O1119       O  0.59306057  0.98774730  0.70814211    -0.79100
O1120       O  0.59403159  0.53399324  0.75241788    -0.66700
Ni1121     Ni  0.43532083  0.94294450  0.78726200     1.34900
C1122       C  0.58167433  0.53263326  0.77787302     0.84400
O1123       O  0.51409967  0.90366234  0.74474912    -0.79600
O1124       O  0.46460620  0.89536436  0.78036969    -0.89900
C1125       C  0.57832504  0.95749291  0.69749551     0.84000
O1126       O  0.40193393  0.93945481  0.75320349    -0.68100
O1127       O  0.53373351  0.58140952  0.72590048    -0.87400
C1128       C  0.41139331  0.94249958  0.72744460     0.84800
C1129       C  0.49402753  0.88328298  0.76269703     1.06400
H1130       H  0.48378273  0.51304973  0.71667016     0.38200
O1131       O  0.50729833  0.50821580  0.73048554    -1.10000
O1132       O  0.54017708  0.52796354  0.78504397    -0.66700
Ni1133     Ni  0.48255578  0.52064650  0.76606512     1.26300
O1134       O  0.45176111  0.94970947  0.71880130    -0.66900
O1135       O  0.47821436  0.57258474  0.75794484    -0.79200
C1136       C  0.41492601  0.51897402  0.80561048     0.84200
O1137       O  0.45504549  0.53057480  0.80115696    -0.66400
Ni1138     Ni  0.56103615  0.53331135  0.71787704     1.27400
Ni1139     Ni  0.51073597  0.95593098  0.73706405     1.26100
H1140       H  0.51168762  0.96422807  0.78628441     0.38800
C1141       C  0.28503507  0.61168386  0.86405633     0.02000
C1142       C  0.28573096  0.65091282  0.86595061     0.01900
C1143       C  0.25373754  0.66927725  0.88336435    -0.18600
C1144       C  0.22119638  0.64862979  0.89860245     0.02000
C1145       C  0.21945786  0.60943266  0.89519416     0.01900
C1146       C  0.25165367  0.59152054  0.87822294    -0.18600
H1147       H  0.25065725  0.56146242  0.87588395     0.04000
H1148       H  0.25445630  0.69935108  0.88525054     0.04000
O1149       O  0.90382829  0.73869176  0.95646595    -0.81200
O1150       O  0.03730187  0.78206482  0.55214328    -0.65900
O1151       O  0.98822622  0.75846526  0.98074322    -1.12500
C1152       C  0.00126438  0.63393591  0.51432004     1.05700
O1153       O  0.09177474  0.73912802  0.54784617    -0.79100
O1154       O  0.09317185  0.68963897  0.00569453    -0.66700
Ni1155     Ni  0.93573743  0.78388295  0.96632738     1.34900
C1156       C  0.08417886  0.69189395  0.97976184     0.84400
O1157       O  0.01520073  0.82347445  0.50832470    -0.79600
O1158       O  0.96248182  0.83188045  0.97444876    -0.89900
C1159       C  0.07749137  0.77045911  0.55695406     0.84000
O1160       O  0.90099398  0.78553801  0.49997053    -0.68100
O1161       O  0.02970932  0.64629611  0.53242219    -0.87400
C1162       C  0.91117920  0.78471602  0.52576305     0.84800
C1163       C  0.99304642  0.84395361  0.99128475     1.06400
H1164       H  0.98179603  0.71543580  0.53693062     0.38200
O1165       O  0.00663415  0.71949398  0.52393047    -1.10000
O1166       O  0.04412450  0.69926672  0.97050879    -0.66700
Ni1167     Ni  0.98455912  0.70623945  0.98777295     1.26300
O1168       O  0.95199479  0.77938288  0.53447470    -0.66900
O1169       O  0.98159266  0.65408383  0.99591789    -0.79200
C1170       C  0.91822175  0.70762760  0.94691479     0.84200
O1171       O  0.95833700  0.69577641  0.95214394    -0.66400
Ni1172     Ni  0.05834228  0.69397333  0.53924642     1.27400
Ni1173     Ni  0.01100320  0.77157551  0.51672957     1.26100
H1174       H  0.01262056  0.76281543  0.96748707     0.38800
O1175       O  0.09599322  0.98955209  0.96183640    -0.81200
O1176       O  0.94716819  0.94618218  0.54882955    -0.65900
O1177       O  0.00854567  0.96906235  0.98111593    -1.12500
C1178       C  0.99106357  0.59402022  0.51409145     1.05700
O1179       O  0.89495345  0.99017646  0.54227654    -0.79100
O1180       O  0.90066417  0.53952621  0.00062105    -0.66700
Ni1181     Ni  0.06399249  0.94403950  0.97086406     1.34900
C1182       C  0.91272696  0.53568590  0.97525137     0.84400
O1183       O  0.97582188  0.90464716  0.50611383    -0.79600
O1184       O  0.03719377  0.89581706  0.97821670    -0.89900
C1185       C  0.90701576  0.95884624  0.55230007     0.84000
O1186       O  0.09283846  0.94479501  0.50671467    -0.68100
O1187       O  0.96097026  0.58187268  0.53110750    -0.87400
C1188       C  0.07706286  0.94476152  0.53147396     0.84800
C1189       C  0.00245632  0.88392873  0.99171763     1.06400
H1190       H  0.00662849  0.51223904  0.53732550     0.38200
O1191       O  0.98353309  0.50841947  0.52309449    -1.10000
O1192       O  0.95356567  0.52728919  0.96802017    -0.66700
Ni1193     Ni  0.01063295  0.52130835  0.98827552     1.26300
O1194       O  0.03447506  0.94801906  0.53674237    -0.66900
O1195       O  0.01210092  0.57369664  0.99628261    -0.79200
C1196       C  0.08224569  0.52002687  0.95095803     0.84200
O1197       O  0.04135901  0.53129941  0.95414431    -0.66400
Ni1198     Ni  0.93050924  0.53468094  0.53587032     1.27400
Ni1199     Ni  0.97930302  0.95640548  0.51526038     1.26100
H1200       H  0.98698326  0.96434370  0.96616444     0.38800
C1201       C  0.27765692  0.89970545  0.64430157     0.02000
C1202       C  0.27802697  0.86030878  0.64272489     0.01900
C1203       C  0.24428460  0.84181610  0.62753432    -0.18600
C1204       C  0.21043338  0.86151504  0.61324393     0.02000
C1205       C  0.21124352  0.90091768  0.61293372     0.01900
C1206       C  0.24495956  0.91986602  0.62863323    -0.18600
H1207       H  0.24459996  0.95002825  0.62951384     0.04000
H1208       H  0.24406716  0.81159137  0.62706772     0.04000
C1209       C  0.71051301  0.86499554  0.64091822     0.02000
C1210       C  0.71016751  0.82572565  0.63967788     0.01900
C1211       C  0.74274294  0.80702227  0.62293066    -0.18600
C1212       C  0.77593874  0.82735046  0.60802767     0.02000
C1213       C  0.77717293  0.86659495  0.61083146     0.01900
C1214       C  0.74421190  0.88491367  0.62690564    -0.18600
H1215       H  0.74461436  0.91508237  0.62840295     0.04000
H1216       H  0.74194814  0.77692505  0.62125832     0.04000
C1217       C  0.88844662  0.91304505  0.58926699    -0.26600
C1218       C  0.87315561  0.93587427  0.56731751    -0.14700
C1219       C  0.82630128  0.93545933  0.55963507     0.35900
C1220       C  0.79608926  0.91208259  0.57404752    -0.26100
C1221       C  0.81138302  0.88967267  0.59615790    -0.15300
C1222       C  0.85808883  0.89046806  0.60412978     0.37000
N1223       N  0.87564763  0.87009649  0.62771701    -0.89600
H1224       H  0.92423410  0.91343902  0.59542935     0.18100
H1225       H  0.76021646  0.91134016  0.56810103     0.18100
N1226       N  0.80971968  0.45770540  0.53673741    -0.88600
H1227       H  0.84988048  0.85591002  0.63833842     0.35500
H1228       H  0.89879625  0.85016963  0.62012009     0.40600
H1229       H  0.80980093  0.48549479  0.54333751     0.40200
H1230       H  0.77548764  0.45141972  0.53230912     0.35100
C1231       C  0.15695020  0.94698542  0.55032973    -0.26600
C1232       C  0.11013875  0.93975519  0.55501574    -0.14700
C1233       C  0.09661900  0.92550018  0.58139143     0.35900
C1234       C  0.13026083  0.91744741  0.60166928    -0.26100
C1235       C  0.17710439  0.92152109  0.59576676    -0.15300
C1236       C  0.19034694  0.93769233  0.57032288     0.37000
N1237       N  0.23795372  0.94240891  0.56398010    -0.89600
H1238       H  0.16807033  0.95837622  0.53049448     0.18100
H1239       H  0.12023157  0.90478725  0.62127473     0.18100
N1240       N  0.04938160  0.91691924  0.58696786    -0.88600
H1241       H  0.24342894  0.97057223  0.55967907     0.35500
H1242       H  0.24535718  0.92713340  0.54584165     0.40600
H1243       H  0.04027306  0.89467167  0.57393322     0.40200
H1244       H  0.04534831  0.90748741  0.60750614     0.35100
C1245       C  0.87894423  0.77956050  0.57437838    -0.26600
C1246       C  0.87367367  0.79132889  0.54644978    -0.14700
C1247       C  0.83299412  0.81060415  0.53882300     0.35900
C1248       C  0.79959851  0.81810119  0.55916438    -0.26100
C1249       C  0.80646534  0.80883529  0.58730728    -0.15300
C1250       C  0.84592438  0.78808125  0.59492449     0.37000
N1251       N  0.85486040  0.77682152  0.62328288    -0.89600
H1252       H  0.90957320  0.76444501  0.58052411     0.18100
H1253       H  0.76932473  0.83401115  0.55344754     0.18100
N1254       N  0.82664661  0.82455674  0.51087566    -0.88600
H1255       H  0.85530116  0.74770456  0.62362501     0.35500
H1256       H  0.82874658  0.78525916  0.63683191     0.40600
H1257       H  0.85069968  0.84567826  0.50783792     0.40200
H1258       H  0.79437291  0.83703386  0.50865941     0.35100
C1259       C  0.11025848  0.79685968  0.60040828    -0.26600
C1260       C  0.10983483  0.79522218  0.57114931    -0.14700
C1261       C  0.14117112  0.81646452  0.55551084     0.35900
C1262       C  0.17345358  0.83849357  0.56961230    -0.26100
C1263       C  0.17447300  0.83968497  0.59891873    -0.15300
C1264       C  0.14251361  0.81892682  0.61453484     0.37000
N1265       N  0.14351865  0.82001022  0.64463013    -0.89600
H1266       H  0.08588732  0.78046314  0.61217828     0.18100
H1267       H  0.19826044  0.85441109  0.55781309     0.18100
N1268       N  0.14039638  0.81509931  0.52542386    -0.88600
H1269       H  0.11805910  0.80287807  0.65293089     0.35500
H1270       H  0.13557013  0.84720893  0.65090616     0.40600
H1271       H  0.10925017  0.82666535  0.51885007     0.40200
H1272       H  0.16621685  0.83188317  0.51712762     0.35100
C1273       C  0.11941540  0.69814921  0.93195212    -0.26600
C1274       C  0.12226785  0.68461282  0.95956748    -0.14700
C1275       C  0.16117264  0.66311869  0.96738032     0.35900
C1276       C  0.19539719  0.65547698  0.94756207    -0.26100
C1277       C  0.19092863  0.66682865  0.91967511    -0.15300
C1278       C  0.15327365  0.68924983  0.91186085     0.37000
N1279       N  0.14880178  0.70180296  0.88344054    -0.89600
H1280       H  0.09009896  0.71488516  0.92581600     0.18100
H1281       H  0.22425916  0.63795219  0.95333238     0.18100
N1282       N  0.16481023  0.64721599  0.99491162    -0.88600
H1283       H  0.11932352  0.71821369  0.88116416     0.35500
H1284       H  0.14428413  0.67838388  0.87068321     0.40600
H1285       H  0.13895603  0.62728092  0.99675019     0.40200
H1286       H  0.19588610  0.63291022  0.99730114     0.35100
C1287       C  0.13755847  0.59349605  0.90430742    -0.26600
C1288       C  0.18420164  0.58636878  0.90921341    -0.14700
C1289       C  0.19694292  0.55763743  0.92757163     0.35900
C1290       C  0.16309418  0.53627121  0.94048242    -0.26100
C1291       C  0.11615953  0.54353095  0.93606299    -0.15300
C1292       C  0.10328088  0.57305696  0.91801473     0.37000
N1293       N  0.05579932  0.58211519  0.91337021    -0.89600
H1294       H  0.12788859  0.61546315  0.88996799     0.18100
H1295       H  0.17387586  0.01430695  0.95456891     0.18100
N1296       N  0.24431981  0.55066955  0.93367921    -0.88600
H1297       H  0.05253262  0.60254272  0.89793087     0.35500
H1298       H  0.04331772  0.59427156  0.93179722     0.40600
H1299       H  0.25172273  0.52300972  0.92835864     0.40200
H1300       H  0.24911077  0.05376220  0.95526251     0.35100
C1301       C  0.63405350  0.89433294  0.64334885    -0.26600
C1302       C  0.67583808  0.88645513  0.65663082    -0.14700
C1303       C  0.68536949  0.90203966  0.68316763     0.35900
C1304       C  0.65270887  0.92529191  0.69569200    -0.26100
C1305       C  0.61081051  0.93329982  0.68244585    -0.15300
C1306       C  0.60127113  0.91760508  0.65584026     0.37000
N1307       N  0.55984988  0.92539969  0.64047988    -0.89600
H1308       H  0.62737318  0.88302299  0.62267267     0.18100
H1309       H  0.65998069  0.93697929  0.71618390     0.18100
N1310       N  0.72738608  0.89480300  0.69804061    -0.88600
H1311       H  0.56926899  0.43783303  0.62158417     0.35500
H1312       H  0.53913796  0.44487182  0.65070132     0.40600
H1313       H  0.74519500  0.91993591  0.69955090     0.40200
H1314       H  0.74860807  0.87617364  0.68727638     0.35100
C1315       C  0.30003446  0.90944904  0.69347971    -0.26600
C1316       C  0.30724496  0.91846299  0.66537780    -0.14700
C1317       C  0.34587752  0.93971340  0.65801748     0.35900
C1318       C  0.37894426  0.94820323  0.67873213    -0.26100
C1319       C  0.37357645  0.93642844  0.70671747    -0.15300
C1320       C  0.33231899  0.91776078  0.71404486     0.37000
N1321       N  0.32260455  0.90505726  0.74181905    -0.89600
H1322       H  0.26993938  0.89360278  0.69926876     0.18100
H1323       H  0.40937610  0.96348720  0.67286087     0.18100
N1324       N  0.35154174  0.95233079  0.62969912    -0.88600
H1325       H  0.32050113  0.92796618  0.75533004     0.35500
H1326       H  0.34851278  0.88675258  0.74824355     0.40600
H1327       H  0.35499018  0.92906482  0.61668134     0.40200
H1328       H  0.38181198  0.96759407  0.62777065     0.35100
C1329       C  0.33824144  0.54813308  0.80946936    -0.26600
C1330       C  0.38241790  0.54331033  0.82054940    -0.14700
C1331       C  0.39536264  0.56282190  0.84493231     0.35900
C1332       C  0.36310472  0.58585327  0.85832555    -0.26100
C1333       C  0.31886317  0.59052437  0.84732742    -0.15300
C1334       C  0.30652935  0.57211118  0.82221716     0.37000
N1335       N  0.26242672  0.57695493  0.80914505    -0.89600
H1336       H  0.32861159  0.53377169  0.79035442     0.18100
H1337       H  0.37206767  0.59951111  0.87781832     0.18100
N1338       N  0.44073285  0.55846452  0.85631336    -0.88600
H1339       H  0.26801030  0.58839926  0.78933920     0.35500
H1340       H  0.24208861  0.59621877  0.81991554     0.40600
H1341       H  0.44438210  0.53076709  0.86267005     0.40200
H1342       H  0.44473749  0.57495040  0.87423682     0.35100
C1343       C  0.65901790  0.78286146  0.70414250    -0.26600
C1344       C  0.61169893  0.78538919  0.69833700    -0.14700
C1345       C  0.59769696  0.79471926  0.67074937     0.35900
C1346       C  0.63103637  0.80439980  0.65073651    -0.26100
C1347       C  0.67776583  0.80494499  0.65760985    -0.15300
C1348       C  0.69188226  0.79267041  0.68411122     0.37000
N1349       N  0.73961065  0.79207386  0.69122203    -0.89600
H1350       H  0.67077527  0.77482449  0.72479493     0.18100
H1351       H  0.62042044  0.81366085  0.63015207     0.18100
N1352       N  0.54989216  0.79639939  0.66345172    -0.88600
H1353       H  0.74442997  0.80929766  0.70866761     0.35500
H1354       H  0.74834677  0.76487507  0.69696935     0.40600
H1355       H  0.53745317  0.76913577  0.66364646     0.40200
H1356       H  0.54563598  0.80598100  0.64295725     0.35100
C1357       C  0.29643198  0.81418848  0.67958699    -0.26600
C1358       C  0.31190135  0.83729311  0.65803359    -0.14700
C1359       C  0.35874388  0.83763904  0.65094643     0.35900
C1360       C  0.38958834  0.81544145  0.66613831    -0.26100
C1361       C  0.37421598  0.79209102  0.68767533    -0.15300
C1362       C  0.32709893  0.79171804  0.69467101     0.37000
N1363       N  0.31065383  0.76920110  0.71736221    -0.89600
H1364       H  0.26028571  0.81416684  0.68487122     0.18100
H1365       H  0.42565708  0.81568296  0.66068463     0.18100
N1366       N  0.37457882  0.85991385  0.62801690    -0.88600
H1367       H  0.27505844  0.77169126  0.71934877     0.35500
H1368       H  0.32476208  0.77976206  0.73588015     0.40600
H1369       H  0.35956940  0.84954173  0.60971154     0.40200
H1370       H  0.41006155  0.85714038  0.62556759     0.35100
C1371       C  0.30180918  0.67743058  0.81969060    -0.26600
C1372       C  0.31670708  0.67199327  0.84720697    -0.14700
C1373       C  0.36313439  0.67902999  0.85402288     0.35900
C1374       C  0.39421988  0.68791330  0.83253933    -0.26100
C1375       C  0.38002711  0.69041292  0.80439039    -0.15300
C1376       C  0.33260587  0.68667936  0.79835369     0.37000
N1377       N  0.31537767  0.69101818  0.77043807    -0.89600
H1378       H  0.26627851  0.67213116  0.81434088     0.18100
H1379       H  0.43006677  0.69140016  0.83786867     0.18100
N1380       N  0.38032517  0.67561029  0.88212489    -0.88600
H1381       H  0.29053399  0.71212069  0.77064683     0.35500
H1382       H  0.29944795  0.66617034  0.76450232     0.40600
H1383       H  0.35399541  0.66955437  0.89616803     0.40200
H1384       H  0.39307950  0.70162683  0.88808881     0.35100
C1385       C  0.80784089  0.57311392  0.93694407    -0.26600
C1386       C  0.81487066  0.55945559  0.90977978    -0.14700
C1387       C  0.85058791  0.53350592  0.90501325     0.35900
C1388       C  0.88175204  0.52548206  0.92667569    -0.26100
C1389       C  0.87740296  0.54232353  0.95325910    -0.15300
C1390       C  0.83925629  0.56598310  0.95846600     0.37000
N1391       N  0.83372383  0.58449218  0.98503885    -0.84000
H1392       H  0.77934663  0.59192318  0.94080721     0.18100
H1393       H  0.90979991  0.50631184  0.92260185     0.18100
N1394       N  0.85621336  0.51521083  0.87850936    -0.88600
H1395       H  0.80351304  0.60030410  0.98543639     0.35500
H1396       H  0.86067849  0.60341470  0.98715458     0.40600
H1397       H  0.85901249  0.53518341  0.86277920     0.40200
H1398       H  0.82680982  0.49953256  0.87454850     0.35100
C1399       C  0.80934235  0.66165160  0.92092461    -0.26600
C1400       C  0.82605743  0.63967577  0.89886125    -0.14700
C1401       C  0.87310805  0.64051172  0.89214589     0.35900
C1402       C  0.90286200  0.66253668  0.90834207    -0.26100
C1403       C  0.88622055  0.68415184  0.93069849    -0.15300
C1404       C  0.83892789  0.68344211  0.93721713     0.37000
N1405       N  0.82123240  0.70417803  0.96070356    -0.89600
H1406       H  0.77304575  0.66107647  0.92579294     0.18100
H1407       H  0.93903076  0.66338297  0.90319782     0.18100
N1408       N  0.89015145  0.62027173  0.86831805    -0.88600
H1409       H  0.78573891  0.70083656  0.96239975     0.35500
H1410       H  0.83556637  0.69275393  0.97884311     0.40600
H1411       H  0.88807234  0.59203829  0.87304055     0.40200
H1412       H  0.92497088  0.62575830  0.86526770     0.35100
C1413       C  0.66389783  0.53237334  0.79236480    -0.26600
C1414       C  0.61760524  0.53762493  0.79987066    -0.14700
C1415       C  0.60759268  0.55019859  0.82745562     0.35900
C1416       C  0.64346649  0.55919228  0.84574617    -0.26100
C1417       C  0.68943211  0.55671307  0.83730233    -0.15300
C1418       C  0.69979454  0.54192947  0.81053298     0.37000
N1419       N  0.74606546  0.53768540  0.80055064    -0.89600
H1420       H  0.67255653  0.52202736  0.77167538     0.18100
H1421       H  0.63527993  0.57068621  0.86615808     0.18100
N1422       N  0.56167637  0.55623977  0.83717133    -0.88600
H1423       H  0.75047154  0.55618975  0.78392181     0.35500
H1424       H  0.77015242  0.54476028  0.81579510     0.40600
H1425       H  0.54409871  0.53094783  0.83666920     0.40200
H1426       H  0.54541930  0.57547118  0.82405633     0.35100
C1427       C  0.62317274  0.67992075  0.84346513    -0.26600
C1428       C  0.62099068  0.68259846  0.81429348    -0.14700
C1429       C  0.65267542  0.66267863  0.79754274     0.35900
C1430       C  0.68628633  0.64064235  0.81028720    -0.26100
C1431       C  0.68908532  0.63850397  0.83949593    -0.15300
C1432       C  0.65728534  0.65818032  0.85631638     0.37000
N1433       N  0.66033482  0.65638013  0.88633942    -0.89600
H1434       H  0.59879656  0.69535258  0.85617285     0.18100
H1435       H  0.71072506  0.62554192  0.79740759     0.18100
N1436       N  0.65125019  0.66430969  0.76758385    -0.88600
H1437       H  0.63483636  0.67287130  0.89560461     0.35500
H1438       H  0.65383262  0.62892117  0.89228507     0.40600
H1439       H  0.65564763  0.69198548  0.76145698     0.40200
H1440       H  0.61887269  0.65551880  0.76094504     0.35100
loop_ 
_geom_bond_atom_site_label_1 
_geom_bond_atom_site_label_2 
_geom_bond_distance 
_geom_bond_site_symmetry_2 
_ccdc_geom_bond_type 
C1            C2   1.412       .  A
C1            C6   1.393       .  A
C1          C351   1.477       .  S
C2            C3   1.409       .  A
C2          C337   1.485       .  S
C3            C4   1.410       .  A
C3            H8   1.083       .  S
C4            C5   1.420       .  A
C4          C306   1.488       .  S
C5            C6   1.394       .  A
C5          C320   1.483       .  S
C6            H7   1.085       .  S
O9          Ni15   1.936       .  S
O9           C30   1.273       .  A
O10         Ni33   1.892       .  S
O10          C19   1.265       .  A
O11         Ni15   1.911       .  S
O11         Ni33   1.899       .  S
O11         Ni27   1.906       .  S
O11          H34   0.966       .  S
C12          C38   1.461       .  S
C12          O29   1.273       .  A
C12          O21   1.276       .  A
O13         Ni32   1.935       .  S
O13          C19   1.273       .  A
O14         Ni32   1.902       .  S
O14          C16   1.268       .  A
Ni15         O18   1.937       .  S
Ni15         O20   1.907       .  S
C16         C295   1.498       .  S
C16          O26   1.277       .  A
O17         Ni33   1.911       .  S
O17          C23   1.273       .  A
O18          C23   1.278       .  A
C19         C281   1.477       .  S
O20          C22   1.269       .  A
O21         Ni32   1.930       .  S
C22         C264   1.495       .  S
C22          O28   1.272       .  A
C23          C49   1.464       .  S
H24          O25   0.966       .  S
O25         Ni33   1.906       .  S
O25         Ni27   1.900       .  S
O25         Ni32   1.907       .  S
O26         Ni27   1.942       .  S
Ni27         O31   1.895       .  S
Ni27         O29   1.913       .  S
O28         Ni33   1.931       .  S
C30         C348   1.464       .  S
C30          O31   1.265       .  A
O35         Ni41   1.938       .  S
O35         C776   1.273       .  A
O36         Ni59   1.892       .  S
O36          C45   1.265       .  A
O37         Ni41   1.905       .  S
O37         Ni59   1.899       .  S
O37        Ni773   1.904       .  S
O37          H60   0.966       .  S
C38          O55   1.272       .  A
C38          O47   1.277       .  A
O39        Ni778   1.935       .  S
O39          C45   1.274       .  A
O40         Ni58   1.909       .  S
O40          C42   1.269       .  A
Ni41         O44   1.933       .  S
Ni41         O46   1.899       .  S
C42         C334   1.494       .  S
C42          O52   1.270       .  A
O43         Ni59   1.915       .  S
O43          C49   1.274       .  A
O44          C49   1.277       .  A
C45         C225   1.468       .  S
O46          C48   1.266       .  A
O47         Ni58   1.935       .  S
C48         C239   1.497       .  S
C48          O54   1.276       .  A
H50          O51   0.967       .  S
O51         Ni53   1.897       .  S
O51         Ni58   1.910       .  S
O51        Ni779   1.906   1_545  S
O52         Ni53   1.927       .  S
Ni53         O57   1.890       .  S
Ni53         O55   1.909       .  S
Ni53        O757   1.904   1_545  S
O54         Ni59   1.941       .  S
C56         C250   1.469       .  S
C56          O57   1.262       .  A
C56         O755   1.273   1_545  A
Ni58        O759   1.935   1_545  S
Ni59        O771   1.906       .  S
C61          C62   1.411       .  A
C61          C66   1.393       .  A
C61         C253   1.476       .  S
C62          C63   1.410       .  A
C62         C292   1.484       .  S
C63          C64   1.411       .  A
C63          H68   1.083       .  S
C64          C65   1.417       .  A
C64         C197   1.486       .  S
C65          C66   1.394       .  A
C65         C208   1.485       .  S
C66          H67   1.085       .  S
O69         Ni75   1.931       .  S
O69          C90   1.273       .  A
O70         Ni93   1.894       .  S
O70          C79   1.263       .  A
O71         Ni75   1.907       .  S
O71         Ni87   1.909       .  S
O71        Ni453   1.900   1_655  S
O71          H94   0.966   1_655  S
C72          C98   1.465   1_455  S
C72          O81   1.277       .  A
C72         O449   1.274   1_454  A
O73         Ni92   1.938       .  S
O73          C79   1.273       .  A
O74        Ni452   1.903       .  S
O74          C76   1.268       .  A
Ni75         O78   1.933       .  S
Ni75        O440   1.901       .  S
C76         C194   1.493       .  S
C76          O86   1.275       .  A
O77         Ni93   1.912       .  S
O77         C443   1.272   1_454  A
O78          C83   1.276       .  A
C79         C180   1.464       .  S
O80        Ni435   1.901       .  S
O80          C82   1.267   1_556  A
O81         Ni92   1.934       .  S
C82         C166   1.492       .  S
C82          O88   1.274       .  A
C83         C109   1.462   1_655  S
C83         O437   1.272   1_655  A
H84          O85   0.966   1_655  S
O85         Ni93   1.907       .  S
O85         Ni92   1.907       .  S
O85        Ni447   1.902   1_454  S
O86         Ni87   1.938   1_455  S
Ni87         O91   1.902       .  S
Ni87         O89   1.916       .  S
Ni87        O445   1.902   1_655  S
O88         Ni93   1.937   1_655  S
O89         C432   1.274   1_655  A
C90         C323   1.477       .  S
C90          O91   1.268       .  A
Ni92        O434   1.903       .  S
Ni93        O431   1.900   1_454  S
O95        Ni101   1.936       .  S
O95         C836   1.275       .  A
O96        Ni119   1.895       .  S
O96         C105   1.265       .  A
O97        Ni101   1.909       .  S
O97        Ni479   1.898   1_455  S
O97        Ni833   1.906       .  S
O97         H120   0.966   1_455  S
C98         O107   1.276       .  A
C98         O475   1.274   1_654  A
O99        Ni838   1.934       .  S
O99         C105   1.272       .  A
O100       Ni478   1.903       .  S
O100        C102   1.269       .  A
Ni101       O104   1.936       .  S
Ni101       O466   1.907       .  S
C102        C309   1.489       .  S
C102        O112   1.275       .  A
O103       Ni119   1.910       .  S
O103        C469   1.273   1_654  A
O104        C109   1.277       .  A
C105        C138   1.477       .  S
O106       Ni461   1.907   1_554  S
O106        C108   1.269       .  A
O107       Ni118   1.931       .  S
C108        C152   1.491       .  S
C108        O114   1.272       .  A
C109        O463   1.273   1_455  A
H110        O111   0.966   1_455  S
O111       Ni118   1.906       .  S
O111       Ni839   1.908   1_545  S
O111       Ni473   1.901   1_654  S
O112       Ni113   1.936   1_655  S
Ni113       O117   1.897       .  S
Ni113       O115   1.918       .  S
Ni113       O817   1.906   1_545  S
Ni113       O471   1.901   1_455  S
O114       Ni119   1.930   1_455  S
O115        C458   1.274   1_455  A
C116        C211   1.486       .  S
C116        O117   1.266       .  A
C116        O815   1.275   1_545  A
Ni118       O819   1.934   1_545  S
Ni118       O460   1.903       .  S
Ni119       O457   1.898   1_654  S
Ni119       O831   1.908       .  S
C121        C122   1.416       .  A
C121        C126   1.410       .  A
C121        C236   1.487       .  S
C122        C123   1.392       .  A
C122        C278   1.479       .  S
C123        C124   1.391       .  A
C123        H128   1.085       .  S
C124        C125   1.415       .  A
C124        C183   1.478       .  S
C125        C126   1.412       .  A
C125        C155   1.485       .  S
C126        H127   1.083       .  S
C129        C130   1.411       .  A
C129        C134   1.391       .  A
C129        C222   1.472       .  S
C130        C131   1.408       .  A
C130        C267   1.482       .  S
C131        C132   1.410       .  A
C131        H136   1.083       .  S
C132        C133   1.415       .  A
C132        C169   1.485       .  S
C133        C134   1.392       .  A
C133        C141   1.478       .  S
C134        H135   1.085       .  S
C137        C138   1.404       .  A
C137        C142   1.399       .  A
C137        H144   1.084       .  S
C138        C139   1.415       .  A
C139        C140   1.402       .  A
C139        N866   1.438       .  S
C140        C141   1.401       .  A
C140        H145   1.084       .  S
C141        C142   1.414       .  A
C142        N143   1.438       .  S
N143        H147   1.043       .  S
N143        H148   1.045       .  S
N146        C859   1.438       .  S
N146        H149   1.045       .  S
N146        H150   1.046       .  S
C151        C152   1.409       .  A
C151        C156   1.403       .  A
C151        H158   1.084       .  S
C152        C153   1.418       .  A
C153        C154   1.408       .  A
C153        N160   1.438       .  S
C154        C155   1.403       .  A
C154        H159   1.083       .  S
C155        C156   1.404       .  A
C156        N157   1.432       .  S
N157        H161   1.045       .  S
N157        H162   1.046       .  S
N160        H163   1.046       .  S
N160        H164   1.046       .  S
C165        C166   1.409       .  A
C165        C170   1.407       .  A
C165        H172   1.084       .  S
C166        C167   1.418       .  A
C167        C168   1.400       .  A
C167        N174   1.439       .  S
C168        C169   1.400       .  A
C168        H173   1.084       .  S
C169        C170   1.416       .  A
C170        N171   1.438       .  S
N171        H175   1.045       .  S
N171        H176   1.043       .  S
N174        H177   1.046       .  S
N174        H178   1.046       .  S
C179        C180   1.398       .  A
C179        C184   1.403       .  A
C179        H186   1.084       .  S
C180        C181   1.409       .  A
C181        C182   1.403       .  A
C181        N188   1.438       .  S
C182        C183   1.400       .  A
C182        H187   1.084       .  S
C183        C184   1.411       .  A
C184        N185   1.438       .  S
N185        H189   1.046       .  S
N185        H190   1.045       .  S
N188        H191   1.045       .  S
N188        H192   1.046       .  S
C193        C194   1.409       .  A
C193        C198   1.412       .  A
C193        H200   1.083       .  S
C194        C195   1.419       .  A
C195        C196   1.401       .  A
C195        N202   1.439       .  S
C196        C197   1.400       .  A
C196        H201   1.084       .  S
C197        C198   1.409       .  A
C198        N199   1.437       .  S
N199        H203   1.045       .  S
N199        H204   1.045       .  S
N202        H205   1.046       .  S
N202        H206   1.046       .  S
C207        C208   1.402       .  A
C207        C212   1.406       .  A
C207        H214   1.082       .  S
C208        C209   1.405       .  A
C209        C210   1.398       .  A
C209        N216   1.433       .  S
C210        C211   1.408       .  A
C210        H935   1.084       .  S
C211        C212   1.418       .  A
C212        N213   1.438       .  S
N213        H217   1.046       .  S
N213        H218   1.046       .  S
H215        C930   1.084       .  S
N216        H219   1.046       .  S
N216        H940   1.046       .  S
H220        N936   1.046       .  S
C221        C222   1.401       .  A
C221        C226   1.399       .  A
C221        H228   1.084       .  S
C222        C223   1.411       .  A
C223        C224   1.397       .  A
C223        N230   1.439       .  S
C224        C225   1.404       .  A
C224        H229   1.085       .  S
C225        C226   1.416       .  A
C226        N227   1.439       .  S
N227        H951   1.046       .  S
N227        H952   1.042       .  S
N230        H233   1.045       .  S
N230        H234   1.043       .  S
H231        N947   1.046       .  S
H232        N947   1.042       .  S
C235        C236   1.398       .  A
C235        C240   1.392       .  A
C235        H242   1.085       .  S
C236        C237   1.409       .  A
C237        C238   1.414       .  A
C237        N244   1.438       .  S
C238        C239   1.412       .  A
C238        H243   1.083       .  S
C239        C240   1.424       .  A
C240        N241   1.433       .  S
N241        H245   1.045       .  S
N241        H246   1.045       .  S
N244        H247   1.044       .  S
N244        H248   1.045       .  S
C249        C250   1.402       .  A
C249        C254   1.398       .  A
C249        H256   1.084       .  S
C250        C251   1.409       .  A
C251        C252   1.402       .  A
C251        N258   1.438       .  S
C252        C253   1.402       .  A
C252        H257   1.083       .  S
C253        C254   1.414       .  A
C254        N255   1.439       .  S
N255        H259   1.046       .  S
N255        H260   1.043       .  S
N258        H261   1.046       .  S
N258        H262   1.046       .  S
C263        C264   1.410       .  A
C263        C268   1.402       .  A
C263        H270   1.084       .  S
C264        C265   1.420       .  A
C265        C266   1.409       .  A
C265        N272   1.438       .  S
C266        C267   1.402       .  A
C266        H271   1.083       .  S
C267        C268   1.402       .  A
C268        N269   1.432       .  S
N269        H273   1.045       .  S
N269        H274   1.045       .  S
N272        H275   1.046       .  S
N272        H276   1.046       .  S
C277        C278   1.400       .  A
C277        C282   1.402       .  A
C277        H284   1.084       .  S
C278        C279   1.408       .  A
C279        C280   1.402       .  A
C279        N286   1.436       .  S
C280        C281   1.404       .  A
C280        H285   1.084       .  S
C281        C282   1.414       .  A
C282        N283   1.438       .  S
N283        H287   1.046       .  S
N283        H288   1.046       .  S
N286        H289   1.045       .  S
N286        H290   1.046       .  S
C291        C292   1.398       .  A
C291        C296   1.401       .  A
C291        H298   1.084       .  S
C292        C293   1.416       .  A
C293        C294   1.408       .  A
C293        N300   1.438       .  S
C294        C295   1.409       .  A
C294        H299   1.083       .  S
C295        C296   1.419       .  A
C296        N297   1.433       .  S
N297        H301   1.046       .  S
N297        H302   1.046       .  S
N300        H303   1.044       .  S
N300        H304   1.045       .  S
C305        C306   1.400       .  A
C305        C310   1.400       .  A
C305        H312   1.084       .  S
C306        C307   1.412       .  A
C307        C308   1.406       .  A
C307        N314   1.433       .  S
C308        C309   1.410       .  A
C308        H313   1.084       .  S
C309        C310   1.418       .  A
C310        N311   1.439       .  S
N311        H315   1.046       .  S
N311        H316   1.046       .  S
N314        H317   1.044       .  S
N314        H318   1.045   1_545  S
C319        C320   1.400       .  A
C319        C324   1.401       .  A
C319        H326   1.084       .  S
C320        C321   1.410       .  A
C321        C322   1.406       .  A
C321        N328   1.436       .  S
C322        C323   1.403       .  A
C322        H327   1.084       .  S
C323        C324   1.414       .  A
C324        N325   1.438       .  S
N325        H329   1.046       .  S
N325        H330   1.046       .  S
N328        H331   1.041       .  S
N328        H332   1.046       .  S
C333        C334   1.409       .  A
C333        C338   1.402       .  A
C333        H340   1.084       .  S
C334        C335   1.421       .  A
C335        C336   1.400       .  A
C335        N342   1.433       .  S
C336        C337   1.402       .  A
C336        H341   1.083       .  S
C337        C338   1.415       .  A
C338        N339   1.439       .  S
N339        H343   1.046       .  S
N339        H344   1.043       .  S
N342        H345   1.045       .  S
N342        H346   1.045       .  S
C347        C348   1.398       .  A
C347        C352   1.404       .  A
C347        H354   1.084       .  S
C348        C349   1.413       .  A
C349        C350   1.397       .  A
C349        N356   1.433       .  S
C350        C351   1.400       .  A
C350        H355   1.084       .  S
C351        C352   1.412       .  A
C352        N353   1.438       .  S
N353        H357   1.046       .  S
N353        H358   1.045       .  S
N356        H359   1.045       .  S
N356        H360   1.046       .  S
C361        C362   1.412       .  A
C361        C366   1.393       .  A
C361        C711   1.477       .  S
C362        C363   1.409       .  A
C362        C697   1.485       .  S
C363        C364   1.410       .  A
C363        H368   1.083       .  S
C364        C365   1.420       .  A
C364        C666   1.488       .  S
C365        C366   1.394       .  A
C365        C680   1.483       .  S
C366        H367   1.085       .  S
O369       Ni375   1.936       .  S
O369        C390   1.273       .  A
O370       Ni393   1.892       .  S
O370        C379   1.265       .  A
O371       Ni375   1.911       .  S
O371       Ni393   1.899       .  S
O371       Ni387   1.906       .  S
O371        H394   0.966       .  S
C372        C398   1.461       .  S
C372        O389   1.273       .  A
C372        O381   1.276       .  A
O373       Ni392   1.935       .  S
O373        C379   1.273       .  A
O374       Ni392   1.902       .  S
O374        C376   1.268       .  A
Ni375       O378   1.937       .  S
Ni375       O380   1.907       .  S
C376        C655   1.498       .  S
C376        O386   1.277       .  A
O377       Ni393   1.911       .  S
O377        C383   1.273       .  A
O378        C383   1.278       .  A
C379        C641   1.477       .  S
O380        C382   1.269       .  A
O381       Ni392   1.930       .  S
C382        C624   1.495       .  S
C382        O388   1.272       .  A
C383        C409   1.464       .  S
H384        O385   0.966       .  S
O385       Ni393   1.906       .  S
O385       Ni387   1.900       .  S
O385       Ni392   1.907       .  S
O386       Ni387   1.942       .  S
Ni387       O391   1.895       .  S
Ni387       O389   1.913       .  S
O388       Ni393   1.931       .  S
C390        C708   1.464       .  S
C390        O391   1.265       .  A
O395       Ni401   1.938       .  S
O395       C1136   1.273       .  A
O396       Ni419   1.892       .  S
O396        C405   1.265       .  A
O397       Ni401   1.905       .  S
O397       Ni419   1.899       .  S
O397      Ni1133   1.904       .  S
O397        H420   0.966       .  S
C398        O415   1.272       .  A
C398        O407   1.277       .  A
O399      Ni1138   1.935       .  S
O399        C405   1.274       .  A
O400       Ni418   1.909       .  S
O400        C402   1.269       .  A
Ni401       O404   1.933       .  S
Ni401       O406   1.899       .  S
C402        C694   1.494       .  S
C402        O412   1.270       .  A
O403       Ni419   1.915       .  S
O403        C409   1.274       .  A
O404        C409   1.277       .  A
C405        C585   1.468       .  S
O406        C408   1.266       .  A
O407       Ni418   1.935       .  S
C408        C599   1.497       .  S
C408        O414   1.276       .  A
H410        O411   0.967       .  S
O411      Ni1139   1.906   1_545  S
O411       Ni413   1.897       .  S
O411       Ni418   1.910       .  S
O412       Ni413   1.927       .  S
Ni413       O417   1.890       .  S
Ni413       O415   1.909       .  S
Ni413      O1117   1.904   1_545  S
O414       Ni419   1.941       .  S
C416        C610   1.469       .  S
C416       O1115   1.273   1_545  A
C416        O417   1.262       .  A
Ni418      O1119   1.935   1_545  S
Ni419      O1131   1.906       .  S
C421        C422   1.411       .  A
C421        C426   1.393       .  A
C421        C613   1.476       .  S
C422        C423   1.410       .  A
C422        C652   1.484       .  S
C423        C424   1.411       .  A
C423        H428   1.083       .  S
C424        C425   1.417       .  A
C424        C557   1.486       .  S
C425        C426   1.394       .  A
C425        C568   1.485       .  S
C426        H427   1.085       .  S
O429       Ni435   1.931       .  S
O429        C450   1.273       .  A
O430       Ni453   1.894       .  S
O430        C439   1.263       .  A
O431       Ni435   1.907       .  S
O431       Ni447   1.909       .  S
O431        H454   0.966   1_655  S
C432        C458   1.465   1_455  S
C432        O441   1.277       .  A
O433       Ni452   1.938       .  S
O433        C439   1.273       .  A
O434        C436   1.268   1_554  A
Ni435       O438   1.933       .  S
C436        C554   1.493       .  S
C436        O446   1.275       .  A
O437       Ni453   1.912       .  S
O438        C443   1.276       .  A
C439        C540   1.464       .  S
O440        C442   1.267       .  A
O441       Ni452   1.934       .  S
C442        C526   1.492       .  S
C442        O448   1.274       .  A
C443        C469   1.462   1_655  S
H444        O445   0.966   1_655  S
O445       Ni453   1.907       .  S
O445       Ni452   1.907       .  S
O446       Ni447   1.938   1_455  S
Ni447       O451   1.902       .  S
Ni447       O449   1.916       .  S
O448       Ni453   1.937   1_655  S
C450        C683   1.477       .  S
C450        O451   1.268       .  A
O455       Ni461   1.936       .  S
O455       C1196   1.275       .  A
O456       Ni479   1.895       .  S
O456        C465   1.265       .  A
O457       Ni461   1.909       .  S
O457      Ni1193   1.906       .  S
O457        H480   0.966   1_455  S
C458        O467   1.276       .  A
O459      Ni1198   1.934       .  S
O459        C465   1.272       .  A
O460        C462   1.269   1_554  A
Ni461       O464   1.936       .  S
C462        C669   1.489       .  S
C462        O472   1.275       .  A
O463       Ni479   1.910       .  S
O464        C469   1.277       .  A
C465        C498   1.477       .  S
O466        C468   1.269       .  A
O467       Ni478   1.931       .  S
C468        C512   1.491       .  S
C468        O474   1.272       .  A
H470        O471   0.966   1_455  S
O471      Ni1199   1.908   1_545  S
O471       Ni478   1.906       .  S
O472       Ni473   1.936   1_655  S
Ni473       O477   1.897       .  S
Ni473       O475   1.918       .  S
Ni473      O1177   1.906   1_545  S
O474       Ni479   1.930   1_455  S
C476        C571   1.486       .  S
C476       O1175   1.275   1_545  A
C476        O477   1.266       .  A
Ni478      O1179   1.934   1_545  S
Ni479      O1191   1.908       .  S
C481        C482   1.416       .  A
C481        C486   1.410       .  A
C481        C596   1.487       .  S
C482        C483   1.392       .  A
C482        C638   1.479       .  S
C483        C484   1.391       .  A
C483        H488   1.085       .  S
C484        C485   1.415       .  A
C484        C543   1.478       .  S
C485        C486   1.412       .  A
C485        C515   1.485       .  S
C486        H487   1.083       .  S
C489        C490   1.411       .  A
C489        C494   1.391       .  A
C489        C582   1.472       .  S
C490        C491   1.408       .  A
C490        C627   1.482       .  S
C491        C492   1.410       .  A
C491        H496   1.083       .  S
C492        C493   1.415       .  A
C492        C529   1.485       .  S
C493        C494   1.392       .  A
C493        C501   1.478       .  S
C494        H495   1.085       .  S
C497        C498   1.404       .  A
C497        C502   1.399       .  A
C497        H504   1.084       .  S
C498        C499   1.415       .  A
C499        C500   1.402       .  A
C499       N1226   1.438       .  S
C500        C501   1.401       .  A
C500        H505   1.084       .  S
C501        C502   1.414       .  A
C502        N503   1.438       .  S
N503        H507   1.043       .  S
N503        H508   1.045       .  S
N506       C1219   1.438       .  S
N506        H509   1.045       .  S
N506        H510   1.046       .  S
C511        C512   1.409       .  A
C511        C516   1.403       .  A
C511        H518   1.084       .  S
C512        C513   1.418       .  A
C513        C514   1.408       .  A
C513        N520   1.438       .  S
C514        C515   1.403       .  A
C514        H519   1.083       .  S
C515        C516   1.404       .  A
C516        N517   1.432       .  S
N517        H521   1.045       .  S
N517        H522   1.046       .  S
N520        H523   1.046       .  S
N520        H524   1.046       .  S
C525        C526   1.409       .  A
C525        C530   1.407       .  A
C525        H532   1.084       .  S
C526        C527   1.418       .  A
C527        C528   1.400       .  A
C527        N534   1.439       .  S
C528        C529   1.400       .  A
C528        H533   1.084       .  S
C529        C530   1.416       .  A
C530        N531   1.438       .  S
N531        H535   1.045       .  S
N531        H536   1.043       .  S
N534        H537   1.046       .  S
N534        H538   1.046       .  S
C539        C540   1.398       .  A
C539        C544   1.403       .  A
C539        H546   1.084       .  S
C540        C541   1.409       .  A
C541        C542   1.403       .  A
C541        N548   1.438       .  S
C542        C543   1.400       .  A
C542        H547   1.084       .  S
C543        C544   1.411       .  A
C544        N545   1.438       .  S
N545        H549   1.046       .  S
N545        H550   1.045       .  S
N548        H551   1.045       .  S
N548        H552   1.046       .  S
C553        C554   1.409       .  A
C553        C558   1.412       .  A
C553        H560   1.083       .  S
C554        C555   1.419       .  A
C555        C556   1.401       .  A
C555        N562   1.439       .  S
C556        C557   1.400       .  A
C556        H561   1.084       .  S
C557        C558   1.409       .  A
C558        N559   1.437       .  S
N559        H563   1.045       .  S
N559        H564   1.045       .  S
N562        H565   1.046       .  S
N562        H566   1.046       .  S
C567        C568   1.402       .  A
C567        C572   1.406       .  A
C567        H574   1.082       .  S
C568        C569   1.405       .  A
C569        C570   1.398       .  A
C569        N576   1.433       .  S
C570        C571   1.408       .  A
C570       H1295   1.084       .  S
C571        C572   1.418       .  A
C572        N573   1.438       .  S
N573        H577   1.046       .  S
N573        H578   1.046       .  S
H575       C1290   1.084       .  S
N576        H579   1.046       .  S
N576       H1300   1.046       .  S
H580       N1296   1.046       .  S
C581        C582   1.401       .  A
C581        C586   1.399       .  A
C581        H588   1.084       .  S
C582        C583   1.411       .  A
C583        C584   1.397       .  A
C583        N590   1.439       .  S
C584        C585   1.404       .  A
C584        H589   1.085       .  S
C585        C586   1.416       .  A
C586        N587   1.439       .  S
N587       H1311   1.046       .  S
N587       H1312   1.042       .  S
N590        H593   1.045       .  S
N590        H594   1.043       .  S
H591       N1307   1.046       .  S
H592       N1307   1.042       .  S
C595        C596   1.398       .  A
C595        C600   1.392       .  A
C595        H602   1.085       .  S
C596        C597   1.409       .  A
C597        C598   1.414       .  A
C597        N604   1.438       .  S
C598        C599   1.412       .  A
C598        H603   1.083       .  S
C599        C600   1.424       .  A
C600        N601   1.433       .  S
N601        H605   1.045       .  S
N601        H606   1.045       .  S
N604        H607   1.044       .  S
N604        H608   1.045       .  S
C609        C610   1.402       .  A
C609        C614   1.398       .  A
C609        H616   1.084       .  S
C610        C611   1.409       .  A
C611        C612   1.402       .  A
C611        N618   1.438       .  S
C612        C613   1.402       .  A
C612        H617   1.083       .  S
C613        C614   1.414       .  A
C614        N615   1.439       .  S
N615        H619   1.046       .  S
N615        H620   1.043       .  S
N618        H621   1.046       .  S
N618        H622   1.046       .  S
C623        C624   1.410       .  A
C623        C628   1.402       .  A
C623        H630   1.084       .  S
C624        C625   1.420       .  A
C625        C626   1.409       .  A
C625        N632   1.438       .  S
C626        C627   1.402       .  A
C626        H631   1.083       .  S
C627        C628   1.402       .  A
C628        N629   1.432       .  S
N629        H633   1.045       .  S
N629        H634   1.045       .  S
N632        H635   1.046       .  S
N632        H636   1.046       .  S
C637        C638   1.400       .  A
C637        C642   1.402       .  A
C637        H644   1.084       .  S
C638        C639   1.408       .  A
C639        C640   1.402       .  A
C639        N646   1.436       .  S
C640        C641   1.404       .  A
C640        H645   1.084       .  S
C641        C642   1.414       .  A
C642        N643   1.438       .  S
N643        H647   1.046       .  S
N643        H648   1.046       .  S
N646        H649   1.045       .  S
N646        H650   1.046       .  S
C651        C652   1.398       .  A
C651        C656   1.401       .  A
C651        H658   1.084       .  S
C652        C653   1.416       .  A
C653        C654   1.408       .  A
C653        N660   1.438       .  S
C654        C655   1.409       .  A
C654        H659   1.083       .  S
C655        C656   1.419       .  A
C656        N657   1.433       .  S
N657        H661   1.046       .  S
N657        H662   1.046       .  S
N660        H663   1.044       .  S
N660        H664   1.045       .  S
C665        C666   1.400       .  A
C665        C670   1.400       .  A
C665        H672   1.084       .  S
C666        C667   1.412       .  A
C667        C668   1.406       .  A
C667        N674   1.433       .  S
C668        C669   1.410       .  A
C668        H673   1.084       .  S
C669        C670   1.418       .  A
C670        N671   1.439       .  S
N671        H675   1.046       .  S
N671        H676   1.046       .  S
N674        H677   1.044       .  S
N674        H678   1.045   1_545  S
C679        C680   1.400       .  A
C679        C684   1.401       .  A
C679        H686   1.084       .  S
C680        C681   1.410       .  A
C681        C682   1.406       .  A
C681        N688   1.436       .  S
C682        C683   1.403       .  A
C682        H687   1.084       .  S
C683        C684   1.414       .  A
C684        N685   1.438       .  S
N685        H689   1.046       .  S
N685        H690   1.046       .  S
N688        H691   1.041       .  S
N688        H692   1.046       .  S
C693        C694   1.408       .  A
C693        C698   1.402       .  A
C693        H700   1.084       .  S
C694        C695   1.421       .  A
C695        C696   1.400       .  A
C695        N702   1.433       .  S
C696        C697   1.402       .  A
C696        H701   1.083       .  S
C697        C698   1.415       .  A
C698        N699   1.439       .  S
N699        H703   1.046       .  S
N699        H704   1.043       .  S
N702        H705   1.045       .  S
N702        H706   1.045       .  S
C707        C708   1.398       .  A
C707        C712   1.404       .  A
C707        H714   1.084       .  S
C708        C709   1.413       .  A
C709        C710   1.397       .  A
C709        N716   1.433       .  S
C710        C711   1.400       .  A
C710        H715   1.084       .  S
C711        C712   1.412       .  A
C712        N713   1.438       .  S
N713        H717   1.046       .  S
N713        H718   1.045       .  S
N716        H719   1.045       .  S
N716        H720   1.046       .  S
C721        C722   1.412       .  A
C721        C726   1.393       .  A
C721       C1071   1.477       .  S
C722        C723   1.409       .  A
C722       C1057   1.485       .  S
C723        C724   1.410       .  A
C723        H728   1.083       .  S
C724        C725   1.420       .  A
C724       C1026   1.488       .  S
C725        C726   1.394       .  A
C725       C1040   1.483       .  S
C726        H727   1.085       .  S
O729       Ni735   1.936       .  S
O729        C750   1.273       .  A
O730       Ni753   1.892       .  S
O730        C739   1.265       .  A
O731       Ni735   1.911       .  S
O731       Ni753   1.899       .  S
O731       Ni747   1.906       .  S
O731        H754   0.966       .  S
C732        C758   1.461       .  S
C732        O749   1.273       .  A
C732        O741   1.276       .  A
O733       Ni752   1.935       .  S
O733        C739   1.273       .  A
O734       Ni752   1.902       .  S
O734        C736   1.268       .  A
Ni735       O738   1.937       .  S
Ni735       O740   1.907       .  S
C736       C1015   1.498       .  S
C736        O746   1.277       .  A
O737       Ni753   1.911       .  S
O737        C743   1.273       .  A
O738        C743   1.278       .  A
C739       C1001   1.477       .  S
O740        C742   1.269       .  A
O741       Ni752   1.930       .  S
C742        C984   1.495       .  S
C742        O748   1.272       .  A
C743        C769   1.464       .  S
H744        O745   0.966       .  S
O745       Ni753   1.906       .  S
O745       Ni747   1.900       .  S
O745       Ni752   1.907       .  S
O746       Ni747   1.942       .  S
Ni747       O751   1.895       .  S
Ni747       O749   1.913       .  S
O748       Ni753   1.931       .  S
C750       C1068   1.464       .  S
C750        O751   1.265       .  A
O755       Ni761   1.938       .  S
O756       Ni779   1.892       .  S
O756        C765   1.265       .  A
O757       Ni761   1.905       .  S
O757       Ni779   1.899       .  S
O757        H780   0.966       .  S
C758        O775   1.272       .  A
C758        O767   1.277       .  A
O759        C765   1.274       .  A
O760       Ni778   1.909       .  S
O760        C762   1.269       .  A
Ni761       O764   1.933       .  S
Ni761       O766   1.899       .  S
C762       C1054   1.494       .  S
C762        O772   1.270       .  A
O763       Ni779   1.915       .  S
O763        C769   1.274       .  A
O764        C769   1.277       .  A
C765        C945   1.468       .  S
O766        C768   1.266       .  A
O767       Ni778   1.935       .  S
C768        C959   1.497       .  S
C768        O774   1.276       .  A
H770        O771   0.967       .  S
O771       Ni773   1.897       .  S
O771       Ni778   1.910       .  S
O772       Ni773   1.927       .  S
Ni773       O777   1.890       .  S
Ni773       O775   1.909       .  S
O774       Ni779   1.941       .  S
C776        C970   1.469       .  S
C776        O777   1.262       .  A
C781        C782   1.411       .  A
C781        C786   1.393       .  A
C781        C973   1.476       .  S
C782        C783   1.410       .  A
C782       C1012   1.484       .  S
C783        C784   1.411       .  A
C783        H788   1.083       .  S
C784        C785   1.417       .  A
C784        C917   1.486       .  S
C785        C786   1.394       .  A
C785        C928   1.485       .  S
C786        H787   1.085       .  S
O789       Ni795   1.931       .  S
O789        C810   1.273       .  A
O790       Ni813   1.894       .  S
O790        C799   1.263       .  A
O791       Ni795   1.907       .  S
O791      Ni1173   1.900   1_655  S
O791       Ni807   1.909       .  S
O791        H814   0.966   1_655  S
C792        C818   1.465   1_455  S
C792       O1169   1.274   1_454  A
C792        O801   1.277       .  A
O793       Ni812   1.938       .  S
O793        C799   1.273       .  A
O794      Ni1172   1.903       .  S
O794        C796   1.268       .  A
Ni795       O798   1.933       .  S
Ni795      O1160   1.901       .  S
C796        C914   1.493       .  S
C796        O806   1.275       .  A
O797       Ni813   1.912       .  S
O797       C1163   1.272   1_454  A
O798        C803   1.276       .  A
C799        C900   1.464       .  S
O800      Ni1155   1.901       .  S
O800        C802   1.267   1_556  A
O801       Ni812   1.934       .  S
C802        C886   1.492       .  S
C802        O808   1.274       .  A
C803        C829   1.462   1_655  S
C803       O1157   1.272   1_655  A
H804        O805   0.966   1_655  S
O805       Ni813   1.907       .  S
O805      Ni1167   1.902   1_454  S
O805       Ni812   1.907       .  S
O806       Ni807   1.938   1_455  S
Ni807       O811   1.902       .  S
Ni807       O809   1.916       .  S
Ni807      O1165   1.902   1_655  S
O808       Ni813   1.937   1_655  S
O809       C1152   1.274   1_655  A
C810       C1043   1.477       .  S
C810        O811   1.268       .  A
Ni812      O1154   1.903       .  S
Ni813      O1151   1.900   1_454  S
O815       Ni821   1.936       .  S
O816       Ni839   1.895       .  S
O816        C825   1.265       .  A
O817       Ni821   1.909       .  S
O817      Ni1199   1.898   1_455  S
O817        H840   0.966   1_455  S
C818       O1195   1.274   1_654  A
C818        O827   1.276       .  A
O819        C825   1.272       .  A
O820      Ni1198   1.903       .  S
O820        C822   1.269       .  A
Ni821       O824   1.936       .  S
Ni821      O1186   1.907       .  S
C822       C1029   1.489       .  S
C822        O832   1.275       .  A
O823       Ni839   1.910       .  S
O823       C1189   1.273   1_654  A
O824        C829   1.277       .  A
C825        C858   1.477       .  S
O826      Ni1181   1.907   1_554  S
O826        C828   1.269       .  A
O827       Ni838   1.931       .  S
C828        C872   1.491       .  S
C828        O834   1.272       .  A
C829       O1183   1.273   1_455  A
H830        O831   0.966   1_455  S
O831      Ni1193   1.901   1_654  S
O831       Ni838   1.906       .  S
O832       Ni833   1.936   1_655  S
Ni833       O837   1.897       .  S
Ni833       O835   1.918       .  S
Ni833      O1191   1.901   1_455  S
O834       Ni839   1.930   1_455  S
O835       C1178   1.274   1_455  A
C836        C931   1.486       .  S
C836        O837   1.266       .  A
Ni838      O1180   1.903       .  S
Ni839      O1177   1.898   1_654  S
C841        C842   1.416       .  A
C841        C846   1.410       .  A
C841        C956   1.487       .  S
C842        C843   1.392       .  A
C842        C998   1.479       .  S
C843        C844   1.391       .  A
C843        H848   1.085       .  S
C844        C845   1.415       .  A
C844        C903   1.478       .  S
C845        C846   1.412       .  A
C845        C875   1.485       .  S
C846        H847   1.083       .  S
C849        C850   1.411       .  A
C849        C854   1.391       .  A
C849        C942   1.472       .  S
C850        C851   1.408       .  A
C850        C987   1.482       .  S
C851        C852   1.410       .  A
C851        H856   1.083       .  S
C852        C853   1.415       .  A
C852        C889   1.485       .  S
C853        C854   1.392       .  A
C853        C861   1.478       .  S
C854        H855   1.085       .  S
C857        C858   1.404       .  A
C857        C862   1.399       .  A
C857        H864   1.084       .  S
C858        C859   1.415       .  A
C859        C860   1.402       .  A
C860        C861   1.401       .  A
C860        H865   1.084       .  S
C861        C862   1.414       .  A
C862        N863   1.438       .  S
N863        H867   1.043       .  S
N863        H868   1.045       .  S
N866        H869   1.045       .  S
N866        H870   1.046       .  S
C871        C872   1.409       .  A
C871        C876   1.403       .  A
C871        H878   1.084       .  S
C872        C873   1.418       .  A
C873        C874   1.408       .  A
C873        N880   1.438       .  S
C874        C875   1.403       .  A
C874        H879   1.083       .  S
C875        C876   1.404       .  A
C876        N877   1.432       .  S
N877        H881   1.045       .  S
N877        H882   1.046       .  S
N880        H883   1.046       .  S
N880        H884   1.046       .  S
C885        C886   1.409       .  A
C885        C890   1.407       .  A
C885        H892   1.084       .  S
C886        C887   1.418       .  A
C887        C888   1.400       .  A
C887        N894   1.439       .  S
C888        C889   1.400       .  A
C888        H893   1.084       .  S
C889        C890   1.416       .  A
C890        N891   1.438       .  S
N891        H895   1.045       .  S
N891        H896   1.043       .  S
N894        H897   1.046       .  S
N894        H898   1.046       .  S
C899        C900   1.398       .  A
C899        C904   1.403       .  A
C899        H906   1.084       .  S
C900        C901   1.409       .  A
C901        C902   1.403       .  A
C901        N908   1.438       .  S
C902        C903   1.400       .  A
C902        H907   1.084       .  S
C903        C904   1.411       .  A
C904        N905   1.438       .  S
N905        H909   1.046       .  S
N905        H910   1.045       .  S
N908        H911   1.045       .  S
N908        H912   1.046       .  S
C913        C914   1.409       .  A
C913        C918   1.412       .  A
C913        H920   1.083       .  S
C914        C915   1.419       .  A
C915        C916   1.401       .  A
C915        N922   1.439       .  S
C916        C917   1.400       .  A
C916        H921   1.084       .  S
C917        C918   1.409       .  A
C918        N919   1.437       .  S
N919        H923   1.045       .  S
N919        H924   1.045       .  S
N922        H925   1.046       .  S
N922        H926   1.046       .  S
C927        C928   1.402       .  A
C927        C932   1.406       .  A
C927        H934   1.082       .  S
C928        C929   1.405       .  A
C929        C930   1.398       .  A
C929        N936   1.433       .  S
C930        C931   1.408       .  A
C931        C932   1.418       .  A
C932        N933   1.438       .  S
N933        H937   1.046       .  S
N933        H938   1.046       .  S
N936        H939   1.046       .  S
C941        C942   1.401       .  A
C941        C946   1.399       .  A
C941        H948   1.084       .  S
C942        C943   1.411       .  A
C943        C944   1.397       .  A
C943        N950   1.439       .  S
C944        C945   1.404       .  A
C944        H949   1.085       .  S
C945        C946   1.416       .  A
C946        N947   1.439       .  S
N950        H953   1.045       .  S
N950        H954   1.043       .  S
C955        C956   1.398       .  A
C955        C960   1.392       .  A
C955        H962   1.085       .  S
C956        C957   1.409       .  A
C957        C958   1.414       .  A
C957        N964   1.438       .  S
C958        C959   1.412       .  A
C958        H963   1.083       .  S
C959        C960   1.424       .  A
C960        N961   1.433       .  S
N961        H965   1.045       .  S
N961        H966   1.045       .  S
N964        H967   1.044       .  S
N964        H968   1.045       .  S
C969        C970   1.402       .  A
C969        C974   1.398       .  A
C969        H976   1.084       .  S
C970        C971   1.409       .  A
C971        C972   1.402       .  A
C971        N978   1.438       .  S
C972        C973   1.402       .  A
C972        H977   1.083       .  S
C973        C974   1.414       .  A
C974        N975   1.439       .  S
N975        H979   1.046       .  S
N975        H980   1.043       .  S
N978        H981   1.046       .  S
N978        H982   1.046       .  S
C983        C984   1.410       .  A
C983        C988   1.402       .  A
C983        H990   1.084       .  S
C984        C985   1.420       .  A
C985        C986   1.409       .  A
C985        N992   1.438       .  S
C986        C987   1.402       .  A
C986        H991   1.083       .  S
C987        C988   1.402       .  A
C988        N989   1.432       .  S
N989        H993   1.045       .  S
N989        H994   1.045       .  S
N992        H995   1.046       .  S
N992        H996   1.046       .  S
C997        C998   1.400       .  A
C997       C1002   1.402       .  A
C997       H1004   1.084       .  S
C998        C999   1.408       .  A
C999       C1000   1.402       .  A
C999       N1006   1.436       .  S
C1000      C1001   1.404       .  A
C1000      H1005   1.084       .  S
C1001      C1002   1.414       .  A
C1002      N1003   1.438       .  S
N1003      H1007   1.046       .  S
N1003      H1008   1.046       .  S
N1006      H1009   1.045       .  S
N1006      H1010   1.046       .  S
C1011      C1012   1.398       .  A
C1011      C1016   1.401       .  A
C1011      H1018   1.084       .  S
C1012      C1013   1.416       .  A
C1013      C1014   1.408       .  A
C1013      N1020   1.438       .  S
C1014      C1015   1.409       .  A
C1014      H1019   1.083       .  S
C1015      C1016   1.419       .  A
C1016      N1017   1.433       .  S
N1017      H1021   1.046       .  S
N1017      H1022   1.046       .  S
N1020      H1023   1.044       .  S
N1020      H1024   1.045       .  S
C1025      C1026   1.400       .  A
C1025      C1030   1.400       .  A
C1025      H1032   1.084       .  S
C1026      C1027   1.412       .  A
C1027      C1028   1.406       .  A
C1027      N1034   1.433       .  S
C1028      C1029   1.410       .  A
C1028      H1033   1.084       .  S
C1029      C1030   1.418       .  A
C1030      N1031   1.439       .  S
N1031      H1035   1.046       .  S
N1031      H1036   1.046       .  S
N1034      H1037   1.044       .  S
N1034      H1038   1.045       .  S
C1039      C1040   1.400       .  A
C1039      C1044   1.401       .  A
C1039      H1046   1.084       .  S
C1040      C1041   1.410       .  A
C1041      C1042   1.406       .  A
C1041      N1048   1.436       .  S
C1042      C1043   1.403       .  A
C1042      H1047   1.084       .  S
C1043      C1044   1.414       .  A
C1044      N1045   1.438       .  S
N1045      H1049   1.046       .  S
N1045      H1050   1.046       .  S
N1048      H1051   1.041       .  S
N1048      H1052   1.046       .  S
C1053      C1054   1.408       .  A
C1053      C1058   1.402       .  A
C1053      H1060   1.084       .  S
C1054      C1055   1.421       .  A
C1055      C1056   1.400       .  A
C1055      N1062   1.433       .  S
C1056      C1057   1.402       .  A
C1056      H1061   1.083       .  S
C1057      C1058   1.415       .  A
C1058      N1059   1.439       .  S
N1059      H1063   1.046       .  S
N1059      H1064   1.043       .  S
N1062      H1065   1.045       .  S
N1062      H1066   1.045       .  S
C1067      C1068   1.398       .  A
C1067      C1072   1.404       .  A
C1067      H1074   1.084       .  S
C1068      C1069   1.413       .  A
C1069      C1070   1.397       .  A
C1069      N1076   1.433       .  S
C1070      C1071   1.400       .  A
C1070      H1075   1.084       .  S
C1071      C1072   1.412       .  A
C1072      N1073   1.438       .  S
N1073      H1077   1.046       .  S
N1073      H1078   1.045       .  S
N1076      H1079   1.045       .  S
N1076      H1080   1.046       .  S
C1081      C1082   1.412       .  A
C1081      C1086   1.393       .  A
C1081      C1431   1.477       .  S
C1082      C1083   1.409       .  A
C1082      C1417   1.485       .  S
C1083      C1084   1.410       .  A
C1083      H1088   1.083       .  S
C1084      C1085   1.420       .  A
C1084      C1386   1.488       .  S
C1085      C1086   1.394       .  A
C1085      C1400   1.483       .  S
C1086      H1087   1.085       .  S
O1089     Ni1095   1.936       .  S
O1089      C1110   1.273       .  A
O1090     Ni1113   1.892       .  S
O1090      C1099   1.265       .  A
O1091     Ni1095   1.911       .  S
O1091     Ni1113   1.899       .  S
O1091     Ni1107   1.906       .  S
O1091      H1114   0.966       .  S
C1092      C1118   1.461       .  S
C1092      O1109   1.273       .  A
C1092      O1101   1.276       .  A
O1093     Ni1112   1.935       .  S
O1093      C1099   1.273       .  A
O1094     Ni1112   1.902       .  S
O1094      C1096   1.268       .  A
Ni1095     O1098   1.937       .  S
Ni1095     O1100   1.907       .  S
C1096      C1375   1.498       .  S
C1096      O1106   1.277       .  A
O1097     Ni1113   1.911       .  S
O1097      C1103   1.273       .  A
O1098      C1103   1.278       .  A
C1099      C1361   1.477       .  S
O1100      C1102   1.269       .  A
O1101     Ni1112   1.930       .  S
C1102      C1344   1.495       .  S
C1102      O1108   1.272       .  A
C1103      C1129   1.464       .  S
H1104      O1105   0.966       .  S
O1105     Ni1113   1.906       .  S
O1105     Ni1107   1.900       .  S
O1105     Ni1112   1.907       .  S
O1106     Ni1107   1.942       .  S
Ni1107     O1111   1.895       .  S
Ni1107     O1109   1.913       .  S
O1108     Ni1113   1.931       .  S
C1110      C1428   1.464       .  S
C1110      O1111   1.265       .  A
O1115     Ni1121   1.938       .  S
O1116     Ni1139   1.892       .  S
O1116      C1125   1.265       .  A
O1117     Ni1121   1.905       .  S
O1117     Ni1139   1.899       .  S
O1117      H1140   0.966       .  S
C1118      O1135   1.272       .  A
C1118      O1127   1.277       .  A
O1119      C1125   1.274       .  A
O1120     Ni1138   1.909       .  S
O1120      C1122   1.269       .  A
Ni1121     O1124   1.933       .  S
Ni1121     O1126   1.899       .  S
C1122      C1414   1.494       .  S
C1122      O1132   1.270       .  A
O1123     Ni1139   1.915       .  S
O1123      C1129   1.274       .  A
O1124      C1129   1.277       .  A
C1125      C1305   1.468       .  S
O1126      C1128   1.266       .  A
O1127     Ni1138   1.935       .  S
C1128      C1319   1.497       .  S
C1128      O1134   1.276       .  A
H1130      O1131   0.967       .  S
O1131     Ni1133   1.897       .  S
O1131     Ni1138   1.910       .  S
O1132     Ni1133   1.927       .  S
Ni1133     O1137   1.890       .  S
Ni1133     O1135   1.909       .  S
O1134     Ni1139   1.941       .  S
C1136      C1330   1.469       .  S
C1136      O1137   1.262       .  A
C1141      C1142   1.411       .  A
C1141      C1146   1.393       .  A
C1141      C1333   1.476       .  S
C1142      C1143   1.410       .  A
C1142      C1372   1.484       .  S
C1143      C1144   1.411       .  A
C1143      H1148   1.083       .  S
C1144      C1145   1.417       .  A
C1144      C1277   1.486       .  S
C1145      C1146   1.394       .  A
C1145      C1288   1.485       .  S
C1146      H1147   1.085       .  S
O1149     Ni1155   1.931       .  S
O1149      C1170   1.273       .  A
O1150     Ni1173   1.894       .  S
O1150      C1159   1.263       .  A
O1151     Ni1155   1.907       .  S
O1151     Ni1167   1.909       .  S
O1151      H1174   0.966   1_655  S
C1152      C1178   1.465   1_455  S
C1152      O1161   1.277       .  A
O1153     Ni1172   1.938       .  S
O1153      C1159   1.273       .  A
O1154      C1156   1.268   1_554  A
Ni1155     O1158   1.933       .  S
C1156      C1274   1.493       .  S
C1156      O1166   1.275       .  A
O1157     Ni1173   1.912       .  S
O1158      C1163   1.276       .  A
C1159      C1260   1.464       .  S
O1160      C1162   1.267       .  A
O1161     Ni1172   1.934       .  S
C1162      C1246   1.492       .  S
C1162      O1168   1.274       .  A
C1163      C1189   1.462   1_655  S
H1164      O1165   0.966   1_655  S
O1165     Ni1173   1.907       .  S
O1165     Ni1172   1.907       .  S
O1166     Ni1167   1.938   1_455  S
Ni1167     O1171   1.902       .  S
Ni1167     O1169   1.916       .  S
O1168     Ni1173   1.937   1_655  S
C1170      C1403   1.477       .  S
C1170      O1171   1.268       .  A
O1175     Ni1181   1.936       .  S
O1176     Ni1199   1.895       .  S
O1176      C1185   1.265       .  A
O1177     Ni1181   1.909       .  S
O1177      H1200   0.966   1_455  S
C1178      O1187   1.276       .  A
O1179      C1185   1.272       .  A
O1180      C1182   1.269   1_554  A
Ni1181     O1184   1.936       .  S
C1182      C1389   1.489       .  S
C1182      O1192   1.275       .  A
O1183     Ni1199   1.910       .  S
O1184      C1189   1.277       .  A
C1185      C1218   1.477       .  S
O1186      C1188   1.269       .  A
O1187     Ni1198   1.931       .  S
C1188      C1232   1.491       .  S
C1188      O1194   1.272       .  A
H1190      O1191   0.966   1_455  S
O1191     Ni1198   1.906       .  S
O1192     Ni1193   1.936   1_655  S
Ni1193     O1197   1.897       .  S
Ni1193     O1195   1.918       .  S
O1194     Ni1199   1.930   1_455  S
C1196      C1291   1.486       .  S
C1196      O1197   1.266       .  A
C1201      C1202   1.416       .  A
C1201      C1206   1.410       .  A
C1201      C1316   1.487       .  S
C1202      C1203   1.392       .  A
C1202      C1358   1.479       .  S
C1203      C1204   1.391       .  A
C1203      H1208   1.085       .  S
C1204      C1205   1.415       .  A
C1204      C1263   1.478       .  S
C1205      C1206   1.412       .  A
C1205      C1235   1.485       .  S
C1206      H1207   1.083       .  S
C1209      C1210   1.411       .  A
C1209      C1214   1.391       .  A
C1209      C1302   1.472       .  S
C1210      C1211   1.408       .  A
C1210      C1347   1.482       .  S
C1211      C1212   1.410       .  A
C1211      H1216   1.083       .  S
C1212      C1213   1.415       .  A
C1212      C1249   1.485       .  S
C1213      C1214   1.392       .  A
C1213      C1221   1.478       .  S
C1214      H1215   1.085       .  S
C1217      C1218   1.404       .  A
C1217      C1222   1.399       .  A
C1217      H1224   1.084       .  S
C1218      C1219   1.415       .  A
C1219      C1220   1.402       .  A
C1220      C1221   1.401       .  A
C1220      H1225   1.084       .  S
C1221      C1222   1.414       .  A
C1222      N1223   1.438       .  S
N1223      H1227   1.043       .  S
N1223      H1228   1.045       .  S
N1226      H1229   1.045       .  S
N1226      H1230   1.046       .  S
C1231      C1232   1.409       .  A
C1231      C1236   1.403       .  A
C1231      H1238   1.084       .  S
C1232      C1233   1.418       .  A
C1233      C1234   1.408       .  A
C1233      N1240   1.438       .  S
C1234      C1235   1.403       .  A
C1234      H1239   1.083       .  S
C1235      C1236   1.404       .  A
C1236      N1237   1.432       .  S
N1237      H1241   1.045       .  S
N1237      H1242   1.046       .  S
N1240      H1243   1.046       .  S
N1240      H1244   1.046       .  S
C1245      C1246   1.409       .  A
C1245      C1250   1.407       .  A
C1245      H1252   1.084       .  S
C1246      C1247   1.418       .  A
C1247      C1248   1.400       .  A
C1247      N1254   1.439       .  S
C1248      C1249   1.400       .  A
C1248      H1253   1.084       .  S
C1249      C1250   1.416       .  A
C1250      N1251   1.438       .  S
N1251      H1255   1.045       .  S
N1251      H1256   1.043       .  S
N1254      H1257   1.046       .  S
N1254      H1258   1.046       .  S
C1259      C1260   1.398       .  A
C1259      C1264   1.403       .  A
C1259      H1266   1.084       .  S
C1260      C1261   1.409       .  A
C1261      C1262   1.403       .  A
C1261      N1268   1.438       .  S
C1262      C1263   1.400       .  A
C1262      H1267   1.084       .  S
C1263      C1264   1.411       .  A
C1264      N1265   1.438       .  S
N1265      H1269   1.046       .  S
N1265      H1270   1.045       .  S
N1268      H1271   1.045       .  S
N1268      H1272   1.046       .  S
C1273      C1274   1.409       .  A
C1273      C1278   1.412       .  A
C1273      H1280   1.083       .  S
C1274      C1275   1.419       .  A
C1275      C1276   1.401       .  A
C1275      N1282   1.439       .  S
C1276      C1277   1.400       .  A
C1276      H1281   1.084       .  S
C1277      C1278   1.409       .  A
C1278      N1279   1.437       .  S
N1279      H1283   1.045       .  S
N1279      H1284   1.045       .  S
N1282      H1285   1.046       .  S
N1282      H1286   1.046       .  S
C1287      C1288   1.402       .  A
C1287      C1292   1.406       .  A
C1287      H1294   1.082       .  S
C1288      C1289   1.405       .  A
C1289      C1290   1.398       .  A
C1289      N1296   1.433       .  S
C1290      C1291   1.408       .  A
C1291      C1292   1.418       .  A
C1292      N1293   1.438       .  S
N1293      H1297   1.046       .  S
N1293      H1298   1.046       .  S
N1296      H1299   1.046       .  S
C1301      C1302   1.401       .  A
C1301      C1306   1.399       .  A
C1301      H1308   1.084       .  S
C1302      C1303   1.411       .  A
C1303      C1304   1.397       .  A
C1303      N1310   1.439       .  S
C1304      C1305   1.404       .  A
C1304      H1309   1.085       .  S
C1305      C1306   1.416       .  A
C1306      N1307   1.439       .  S
N1310      H1313   1.045       .  S
N1310      H1314   1.043       .  S
C1315      C1316   1.398       .  A
C1315      C1320   1.392       .  A
C1315      H1322   1.085       .  S
C1316      C1317   1.409       .  A
C1317      C1318   1.414       .  A
C1317      N1324   1.438       .  S
C1318      C1319   1.412       .  A
C1318      H1323   1.083       .  S
C1319      C1320   1.424       .  A
C1320      N1321   1.433       .  S
N1321      H1325   1.045       .  S
N1321      H1326   1.045       .  S
N1324      H1327   1.044       .  S
N1324      H1328   1.045       .  S
C1329      C1330   1.402       .  A
C1329      C1334   1.398       .  A
C1329      H1336   1.084       .  S
C1330      C1331   1.409       .  A
C1331      C1332   1.402       .  A
C1331      N1338   1.438       .  S
C1332      C1333   1.402       .  A
C1332      H1337   1.083       .  S
C1333      C1334   1.414       .  A
C1334      N1335   1.439       .  S
N1335      H1339   1.046       .  S
N1335      H1340   1.043       .  S
N1338      H1341   1.046       .  S
N1338      H1342   1.046       .  S
C1343      C1344   1.410       .  A
C1343      C1348   1.402       .  A
C1343      H1350   1.084       .  S
C1344      C1345   1.420       .  A
C1345      C1346   1.409       .  A
C1345      N1352   1.438       .  S
C1346      C1347   1.402       .  A
C1346      H1351   1.083       .  S
C1347      C1348   1.402       .  A
C1348      N1349   1.432       .  S
N1349      H1353   1.045       .  S
N1349      H1354   1.045       .  S
N1352      H1355   1.046       .  S
N1352      H1356   1.046       .  S
C1357      C1358   1.400       .  A
C1357      C1362   1.402       .  A
C1357      H1364   1.084       .  S
C1358      C1359   1.408       .  A
C1359      C1360   1.402       .  A
C1359      N1366   1.436       .  S
C1360      C1361   1.404       .  A
C1360      H1365   1.084       .  S
C1361      C1362   1.414       .  A
C1362      N1363   1.438       .  S
N1363      H1367   1.046       .  S
N1363      H1368   1.046       .  S
N1366      H1369   1.045       .  S
N1366      H1370   1.046       .  S
C1371      C1372   1.398       .  A
C1371      C1376   1.401       .  A
C1371      H1378   1.084       .  S
C1372      C1373   1.416       .  A
C1373      C1374   1.408       .  A
C1373      N1380   1.438       .  S
C1374      C1375   1.409       .  A
C1374      H1379   1.083       .  S
C1375      C1376   1.419       .  A
C1376      N1377   1.433       .  S
N1377      H1381   1.046       .  S
N1377      H1382   1.046       .  S
N1380      H1383   1.044       .  S
N1380      H1384   1.045       .  S
C1385      C1386   1.400       .  A
C1385      C1390   1.400       .  A
C1385      H1392   1.084       .  S
C1386      C1387   1.412       .  A
C1387      C1388   1.406       .  A
C1387      N1394   1.433       .  S
C1388      C1389   1.410       .  A
C1388      H1393   1.084       .  S
C1389      C1390   1.418       .  A
C1390      N1391   1.439       .  S
N1391      H1395   1.046       .  S
N1391      H1396   1.046       .  S
N1394      H1397   1.044       .  S
N1394      H1398   1.045       .  S
C1399      C1400   1.400       .  A
C1399      C1404   1.401       .  A
C1399      H1406   1.084       .  S
C1400      C1401   1.410       .  A
C1401      C1402   1.406       .  A
C1401      N1408   1.436       .  S
C1402      C1403   1.403       .  A
C1402      H1407   1.084       .  S
C1403      C1404   1.414       .  A
C1404      N1405   1.438       .  S
N1405      H1409   1.046       .  S
N1405      H1410   1.046       .  S
N1408      H1411   1.041       .  S
N1408      H1412   1.046       .  S
C1413      C1414   1.408       .  A
C1413      C1418   1.402       .  A
C1413      H1420   1.084       .  S
C1414      C1415   1.421       .  A
C1415      C1416   1.400       .  A
C1415      N1422   1.433       .  S
C1416      C1417   1.402       .  A
C1416      H1421   1.083       .  S
C1417      C1418   1.415       .  A
C1418      N1419   1.439       .  S
N1419      H1423   1.046       .  S
N1419      H1424   1.043       .  S
N1422      H1425   1.045       .  S
N1422      H1426   1.045       .  S
C1427      C1428   1.398       .  A
C1427      C1432   1.404       .  A
C1427      H1434   1.084       .  S
C1428      C1429   1.413       .  A
C1429      C1430   1.397       .  A
C1429      N1436   1.433       .  S
C1430      C1431   1.400       .  A
C1430      H1435   1.084       .  S
C1431      C1432   1.412       .  A
C1432      N1433   1.438       .  S
N1433      H1437   1.046       .  S
N1433      H1438   1.045       .  S
N1436      H1439   1.045       .  S
N1436      H1440   1.046       .  S
