geometry optimzed in LAMMPS
_audit_creation_date              2020-11-30 
_audit_creation_method            'lammps2cif' 
_symmetry_space_group_name_H-M    'P1' 
_symmetry_Int_Tables_number       1 
_symmetry_cell_setting            triclinic 
loop_ 
_symmetry_equiv_pos_as_xyz 
  x,y,z 
_cell_length_a                    50.67807184 
_cell_length_b                    34.65318994676308 
_cell_length_c                    31.381450428476843 
_cell_angle_alpha                 90.52599611118669 
_cell_angle_beta                  90.01524238315304 
_cell_angle_gamma                 89.99049576141545 
loop_ 
_atom_site_label 
_atom_site_type_symbol 
_atom_site_fract_x 
_atom_site_fract_y 
_atom_site_fract_z 
_atom_site_charge 
N1          N  0.79060695  0.05929734  0.52018489    -0.27300
N2          N  0.81542582  0.05830057  0.53312797    -0.35200
C3          C  0.82494197  0.02235608  0.52717225     0.01000
C4          C  0.80494000  0.99969361  0.51043015     0.07000
C5          C  0.78347304  0.02396062  0.50649061    -0.06100
H6          H  0.84443188  0.01295293  0.53651829     0.07700
H7          H  0.76404647  0.01647018  0.49474102     0.08900
Cu8        Cu  0.83317211  0.10396014  0.56550916     0.44200
Cu9        Cu  0.76750748  0.10849944  0.52205825     0.42000
Cu10       Cu  0.79049999  0.18522534  0.59088911     0.43900
N11         N  0.84102879  0.14434734  0.61316496    -0.34700
N12         N  0.82445840  0.17205771  0.62464108    -0.29000
C13         C  0.83268642  0.18778769  0.66171259    -0.05100
C14         C  0.85577310  0.16955802  0.67359407     0.07100
C15         C  0.86054852  0.14235617  0.64207312     0.00900
H16         H  0.82215664  0.20987155  0.67940147     0.08600
H17         H  0.87580500  0.12047198  0.64210279     0.07700
N18         N  0.75913362  0.19103876  0.54901137    -0.36200
N19         N  0.75066112  0.16284418  0.52387776    -0.28400
C20         C  0.73119526  0.17625531  0.49889884    -0.03600
C21         C  0.72731952  0.21478384  0.50878890     0.05000
C22         C  0.74528624  0.22320847  0.54075161     0.03100
H23         H  0.72114699  0.15946914  0.47473262     0.08200
H24         H  0.74852879  0.25078596  0.55612775     0.07100
N25         N  0.79105489  0.05960796  0.98887501    -0.27300
N26         N  0.81557420  0.05783615  0.97452635    -0.35200
C27         C  0.82533431  0.02232624  0.98202830     0.01000
C28         C  0.80579366  0.00067023  0.00122581     0.07000
C29         C  0.78437130  0.02514599  0.00493760    -0.06100
H30         H  0.84448983  0.01223219  0.97157414     0.07700
H31         H  0.76511219  0.01817546  0.01759501     0.08900
Cu32       Cu  0.83216051  0.10115766  0.93764336     0.44200
Cu33       Cu  0.76715907  0.10819909  0.98480546     0.42000
Cu34       Cu  0.78606492  0.17775643  0.90768039     0.43900
N35         N  0.83831328  0.13969481  0.88811019    -0.34700
N36         N  0.82060732  0.16512335  0.87519203    -0.29000
C37         C  0.82884665  0.18088006  0.83849139    -0.05100
C38         C  0.85310782  0.16517220  0.82833128     0.07100
C39         C  0.85858267  0.13932300  0.86045315     0.00900
H40         H  0.81784459  0.20181263  0.82036456     0.08600
H41         H  0.87523709  0.11987557  0.86211167     0.07700
N42         N  0.75559023  0.18709123  0.95047713    -0.36200
N43         N  0.74852038  0.16132738  0.97906599    -0.28400
C44         C  0.72947184  0.17654539  0.00394132    -0.03600
C45         C  0.72445819  0.21376668  0.99043446     0.05000
C46         C  0.74134493  0.21946528  0.95642146     0.03100
H47         H  0.72055379  0.16201460  0.03066259     0.08200
H48         H  0.74362114  0.24548838  0.93804628     0.07100
C49         C  0.90927318  0.16625095  0.75347967     0.80200
N50         N  0.89635638  0.16803734  0.71557373    -0.78100
C51         C  0.86978426  0.17295078  0.71435945     0.82600
N52         N  0.85593179  0.17532604  0.75135349    -0.78100
C53         C  0.86845386  0.17078009  0.78926665     0.82700
N54         N  0.89504901  0.16631893  0.79014945    -0.79800
N55         N  0.79268879  0.89800229  0.48981897    -0.27300
N56         N  0.81734863  0.90067332  0.47642892    -0.35200
C57         C  0.82599636  0.93695280  0.48338465     0.01000
C58         C  0.80556283  0.95808908  0.50119614     0.07000
C59         C  0.78477195  0.93257011  0.50475006    -0.06100
H60         H  0.84505591  0.94775038  0.47359616     0.07700
H61         H  0.76516943  0.93880782  0.51660050     0.08900
Cu62       Cu  0.83562362  0.85706923  0.44138513     0.44200
Cu63       Cu  0.77048900  0.84802040  0.48555058     0.42000
Cu64       Cu  0.79310173  0.77557818  0.41194946     0.43900
N65         N  0.84373696  0.81800592  0.39243804    -0.34700
N66         N  0.82738323  0.79038138  0.37985207    -0.29000
C67         C  0.83604847  0.77542634  0.34268671    -0.05100
C68         C  0.85914394  0.79407141  0.33180657     0.07100
C69         C  0.86352580  0.82070945  0.36407635     0.00900
H70         H  0.82580463  0.75355587  0.32426308     0.08600
H71         H  0.87874261  0.84261692  0.36502771     0.07700
N72         N  0.76117181  0.76749385  0.45225938    -0.36200
N73         N  0.75299243  0.79432944  0.47936568    -0.28400
C74         C  0.73292455  0.78026106  0.50249633    -0.03600
C75         C  0.72824923  0.74269632  0.48935068     0.05000
C76         C  0.74647594  0.73549231  0.45737947     0.03100
H77         H  0.72291605  0.79597098  0.52756502     0.08200
H78         H  0.74924200  0.70886437  0.43983936     0.07100
N79         N  0.79286395  0.89916882  0.02047614    -0.27300
N80         N  0.81748135  0.90144147  0.03420229    -0.35200
C81         C  0.82639106  0.93767704  0.02827616     0.01000
C82         C  0.80614625  0.95917415  0.01070942     0.07000
C83         C  0.78523215  0.93389715  0.00634272    -0.06100
H84         H  0.84555321  0.94810943  0.03825131     0.07700
H85         H  0.76577767  0.94034455  0.99409532     0.08900
Cu86       Cu  0.83515797  0.85681941  0.06764228     0.44200
Cu87       Cu  0.77043262  0.84926091  0.02256618     0.42000
Cu88       Cu  0.79036755  0.77790561  0.09752129     0.43900
N89         N  0.84207297  0.81789319  0.11641191    -0.34700
N90         N  0.82485553  0.79190895  0.12969665    -0.29000
C91         C  0.83331295  0.77723360  0.16686142    -0.05100
C92         C  0.85717798  0.79429539  0.17686745     0.07100
C93         C  0.86222085  0.81966183  0.14417632     0.00900
H94         H  0.82260894  0.75639545  0.18557574     0.08600
H95         H  0.87832518  0.84008775  0.14241414     0.07700
N96         N  0.75973442  0.76927668  0.05466323    -0.36200
N97         N  0.75255791  0.79569863  0.02687013    -0.28400
C98         C  0.73327854  0.78130135  0.00196970    -0.03600
C99         C  0.72808212  0.74396258  0.01464927     0.05000
C100        C  0.74519380  0.73723860  0.04819313     0.03100
H101        H  0.72409561  0.79668786  0.97607196     0.08200
H102        H  0.74728804  0.71087193  0.06602896     0.07100
C103        C  0.91269155  0.80102924  0.25234335     0.80200
N104        N  0.89975328  0.79895408  0.29019341    -0.78100
C105        C  0.87346972  0.79137849  0.29129207     0.82600
N106        N  0.85994622  0.78633084  0.25424880    -0.78100
C107        C  0.87241217  0.79096869  0.21633553     0.82700
N108        N  0.89866457  0.79831145  0.21563055    -0.79800
N109        N  0.64718796  0.55807980  0.51978928    -0.27300
N110        N  0.62353013  0.55504900  0.53721171    -0.35200
C111        C  0.61463714  0.51875114  0.53149641     0.01000
C112        C  0.63384768  0.49799185  0.51005947     0.07000
C113        C  0.65422723  0.52367076  0.50329709    -0.06100
H114        H  0.59611766  0.50791898  0.54361160     0.07700
H115        H  0.67277614  0.51783425  0.48743594     0.08900
Cu116      Cu  0.60612742  0.59919191  0.57232836     0.44200
Cu117      Cu  0.66874432  0.60887632  0.51864937     0.42000
Cu118      Cu  0.64673795  0.68406179  0.59047408     0.43900
N119        N  0.59717694  0.64245652  0.61608572    -0.34700
N120        N  0.61296408  0.67182265  0.62504845    -0.29000
C121        C  0.60377851  0.69046704  0.65982970    -0.05100
C122        C  0.58085125  0.67237610  0.67266228     0.07100
C123        C  0.57720716  0.64220957  0.64421682     0.00900
H124        H  0.61352483  0.71453474  0.67537696     0.08600
H125        H  0.56238442  0.61978679  0.64601817     0.07700
N126        N  0.67710743  0.69109553  0.54699735    -0.36200
N127        N  0.68508679  0.66369306  0.52040758    -0.28400
C128        C  0.70443796  0.67774143  0.49559414    -0.03600
C129        C  0.70880863  0.71580894  0.50726377     0.05000
C130        C  0.69114959  0.72331599  0.53990805     0.03100
H131        H  0.71446648  0.66149562  0.47096778     0.08200
H132        H  0.68856957  0.75016411  0.55710422     0.09500
N133        N  0.64550415  0.56097936  0.98377186    -0.27300
N134        N  0.62148388  0.55811871  0.96758292    -0.35200
C135        C  0.61250252  0.52197658  0.97360603     0.01000
C136        C  0.63209569  0.50118349  0.99378620     0.07000
C137        C  0.65271007  0.52668708  0.99960081    -0.06100
H138        H  0.59375775  0.51114374  0.96216989     0.07700
H139        H  0.67161849  0.52075665  0.01418101     0.08900
Cu140      Cu  0.60439728  0.60176760  0.93197564     0.44200
Cu141      Cu  0.66765931  0.61107243  0.98374050     0.42000
Cu142      Cu  0.64721622  0.68423428  0.91080695     0.43900
N143        N  0.59733091  0.64247807  0.88513390    -0.34700
N144        N  0.61384904  0.67058169  0.87522237    -0.29000
C145        C  0.60539243  0.68764752  0.83930990    -0.05100
C146        C  0.58220069  0.66990254  0.82670043     0.07100
C147        C  0.57764243  0.64154206  0.85644386     0.00900
H148        H  0.61552275  0.71085475  0.82336608     0.08600
H149        H  0.56207668  0.62018473  0.85574386     0.07700
N150        N  0.67746754  0.69207656  0.95476118    -0.36200
N151        N  0.68489309  0.66510527  0.98174071    -0.28400
C152        C  0.70407858  0.67922593  0.00709148    -0.03600
C153        C  0.70896084  0.71695054  0.99545733     0.05000
C154        C  0.69176737  0.72414593  0.96216607     0.03100
H155        H  0.71353182  0.66330936  0.03233533     0.08200
H156        H  0.68954748  0.75082651  0.94494359     0.07100
C157        C  0.52662837  0.66978962  0.75070517     0.80200
N158        N  0.53984631  0.67239424  0.71316937    -0.78100
C159        C  0.56634975  0.67808192  0.71258101     0.82600
N160        N  0.57983544  0.68099998  0.74989248    -0.78100
C161        C  0.56707255  0.67599383  0.78748574     0.82700
N162        N  0.54057876  0.67026918  0.78766905    -0.79800
N163        N  0.64578190  0.40084221  0.01754807    -0.27300
N164        N  0.62110522  0.40345484  0.03097651    -0.35200
C165        C  0.61197479  0.43918057  0.02305020     0.01000
C166        C  0.63207949  0.46007204  0.00449024     0.07000
C167        C  0.65322295  0.43502640  0.00164652    -0.06100
H168        H  0.59274099  0.44979659  0.03242922     0.07700
H169        H  0.67264786  0.44124633  0.98918012     0.08900
Cu170      Cu  0.60304029  0.36073214  0.06646131     0.44200
Cu171      Cu  0.66821561  0.35090021  0.02100618     0.42000
Cu172      Cu  0.64451190  0.27847620  0.09241151     0.43900
N173        N  0.59514525  0.32252392  0.11532762    -0.34700
N174        N  0.61126816  0.29446416  0.12688281    -0.29000
C175        C  0.60268929  0.27953380  0.16383687    -0.05100
C176        C  0.57984767  0.29868173  0.17548947     0.07100
C177        C  0.57557572  0.32559571  0.14404841     0.00900
H178        H  0.61255443  0.25690886  0.18117935     0.08600
H179        H  0.56037687  0.34751868  0.14358410     0.07700
N180        N  0.67510351  0.26891345  0.04966298    -0.36200
N181        N  0.68386464  0.29563744  0.02342995    -0.28400
C182        C  0.70279722  0.28025403  0.99846778    -0.03600
C183        C  0.70610735  0.24199356  0.00958645     0.05000
C184        C  0.68826305  0.23580135  0.04219525     0.03100
H185        H  0.71310899  0.29567045  0.97373850     0.08200
H186        H  0.68475946  0.20908288  0.05878524     0.07100
N187        N  0.64691597  0.39763054  0.48425426    -0.27300
N188        N  0.62162319  0.39947159  0.47422005    -0.35200
C189        C  0.61268124  0.43525426  0.48315365     0.01000
C190        C  0.63357514  0.45683488  0.49881689     0.07000
C191        C  0.65493928  0.43217862  0.49895607    -0.06100
H192        H  0.59293806  0.44537657  0.47647723     0.07700
H193        H  0.67489518  0.43885932  0.50883917     0.08900
Cu194      Cu  0.60261788  0.35519281  0.44140891     0.44200
Cu195      Cu  0.66937227  0.34836695  0.47770306     0.42000
Cu196      Cu  0.64567549  0.27484101  0.40773938     0.43900
N197        N  0.59436319  0.31705846  0.39171850    -0.34700
N198        N  0.61095903  0.29043044  0.37738400    -0.29000
C199        C  0.60213061  0.27679627  0.33974060    -0.05100
C200        C  0.57867517  0.29517164  0.33039537     0.07100
C201        C  0.57424227  0.32031934  0.36403707     0.00900
H202        H  0.61250333  0.25605280  0.31996400     0.08600
H203        H  0.55880243  0.34182608  0.36635548     0.07700
N204        N  0.67728767  0.26653664  0.44857682    -0.36200
N205        N  0.68592055  0.29412545  0.47431363    -0.28400
C206        C  0.70517289  0.28008036  0.49913757    -0.03600
C207        C  0.70884849  0.24169176  0.48856665     0.05000
C208        C  0.69090226  0.23396012  0.45628600     0.03100
H209        H  0.71518017  0.29637121  0.52376307     0.08200
H210        H  0.68751149  0.20663859  0.44043908     0.07100
C211        C  0.52452433  0.30216410  0.25185405     0.80200
N212        N  0.53839791  0.30103545  0.21485590    -0.78100
C213        C  0.56482004  0.29494473  0.21511052     0.82600
N214        N  0.57755424  0.29008765  0.25272764    -0.78100
C215        C  0.56414848  0.29375127  0.29003371     0.82700
N216        N  0.53769656  0.30014868  0.28951521    -0.79800
N217        N  0.14471715  0.06799881  0.51802980    -0.27300
N218        N  0.12020694  0.06487851  0.53194276    -0.35200
C219        C  0.11153978  0.02879467  0.52397707     0.01000
C220        C  0.13183311  0.00830375  0.50489242     0.07000
C221        C  0.15254115  0.03394653  0.50164958    -0.06100
H222        H  0.09257899  0.01767062  0.53378711     0.07700
H223        H  0.17199363  0.02817177  0.48888378     0.08900
Cu224      Cu  0.10216606  0.10778486  0.56813499     0.44200
Cu225      Cu  0.16652943  0.11809934  0.52264151     0.42000
Cu226      Cu  0.14208629  0.19337980  0.59201983     0.43900
N227        N  0.09377052  0.14715595  0.61649513    -0.34700
N228        N  0.10911091  0.17656946  0.62737416    -0.29000
C229        C  0.10032018  0.19167931  0.66451653    -0.05100
C230        C  0.07819142  0.17120600  0.67692474     0.07100
C231        C  0.07458372  0.14339659  0.64571307     0.00900
H232        H  0.10968296  0.21519228  0.68167172     0.08600
H233        H  0.06020914  0.12027564  0.64586508     0.07700
N234        N  0.17335490  0.20105243  0.54942356    -0.36200
N235        N  0.18230412  0.17293925  0.52460374    -0.28400
C236        C  0.20160263  0.18657776  0.49952859    -0.03600
C237        C  0.20503083  0.22526775  0.50879902     0.05000
C238        C  0.18685396  0.23356249  0.54068440     0.03100
H239        H  0.21192556  0.16971336  0.47574248     0.08200
H240        H  0.18337677  0.26119825  0.55580825     0.07100
N241        N  0.14465923  0.06604403  0.99129880    -0.27300
N242        N  0.11991696  0.06381607  0.97802146    -0.35200
C243        C  0.11074534  0.02799470  0.98538283     0.01000
C244        C  0.13087414  0.00669007  0.00336711     0.07000
C245        C  0.15205513  0.03159629  0.00654184    -0.06100
H246        H  0.09155075  0.01751146  0.97561332     0.07700
H247        H  0.17160282  0.02496298  0.01825672     0.08900
Cu248      Cu  0.10188438  0.10672721  0.94240995     0.44200
Cu249      Cu  0.16795622  0.11500936  0.98683280     0.42000
Cu250      Cu  0.14634105  0.18390480  0.91069134     0.43900
N251        N  0.09430357  0.14433686  0.89258904    -0.34700
N252        N  0.11153797  0.17011162  0.87895469    -0.29000
C253        C  0.10294491  0.18466652  0.84183311    -0.05100
C254        C  0.07895156  0.16779584  0.83205904     0.07100
C255        C  0.07398878  0.14252303  0.86498528     0.00900
H256        H  0.11366845  0.20530642  0.82289548     0.08600
H257        H  0.05782883  0.12224491  0.86705447     0.07700
N258        N  0.17770547  0.19414662  0.95197075    -0.36200
N259        N  0.18568775  0.16851543  0.98009581    -0.28400
C260        C  0.20538561  0.18383132  0.00348948    -0.03600
C261        C  0.20999334  0.22099719  0.98949251     0.05000
C262        C  0.19208498  0.22658871  0.95676793     0.03100
H263        H  0.21525202  0.16921697  0.02928079     0.08200
H264        H  0.18941537  0.25245361  0.93825299     0.07100
C265        C  0.02375543  0.16431853  0.75476577     0.80200
N266        N  0.03716802  0.16733089  0.71745648    -0.78100
C267        C  0.06357201  0.17391769  0.71726116     0.82600
N268        N  0.07678901  0.17698885  0.75480545    -0.78100
C269        C  0.06389452  0.17140837  0.79224403     0.82700
N270        N  0.03742060  0.16515489  0.79208140    -0.79800
N271        N  0.14501202  0.90541966  0.02059028    -0.27300
N272        N  0.12074260  0.90725631  0.03591008    -0.35200
C273        C  0.11146246  0.94338513  0.03096867     0.01000
C274        C  0.13109934  0.96521654  0.01232578     0.07000
C275        C  0.15205266  0.94032678  0.00629566    -0.06100
H276        H  0.09248865  0.95347516  0.04222429     0.07700
H277        H  0.17113368  0.94714633  0.99285864     0.08900
Cu278      Cu  0.10376589  0.86219793  0.06926967     0.44200
Cu279      Cu  0.16797335  0.85613318  0.02093798     0.42000
Cu280      Cu  0.14949113  0.78451452  0.09660333     0.43900
N281        N  0.09670760  0.82094833  0.11537633    -0.34700
N282        N  0.11420380  0.79501780  0.12777451    -0.29000
C283        C  0.10552678  0.77823101  0.16363048    -0.05100
C284        C  0.08123901  0.79392477  0.17371046     0.07100
C285        C  0.07618500  0.82069219  0.14242571     0.00900
H286        H  0.11653319  0.75733554  0.18181860     0.08600
H287        H  0.05996632  0.84098435  0.14161182     0.07700
N288        N  0.17992645  0.77689800  0.05341251    -0.36200
N289        N  0.18653686  0.80321519  0.02515918    -0.28400
C290        C  0.20535846  0.78875755  0.99940417    -0.03600
C291        C  0.21072573  0.75145552  0.01199946     0.05000
C292        C  0.19432150  0.74487343  0.04639672     0.03100
H293        H  0.21384165  0.80386453  0.97271066     0.08200
H294        H  0.19238886  0.71846230  0.06419790     0.07100
N295        N  0.14646957  0.90744039  0.48342746    -0.27300
N296        N  0.12188371  0.90927949  0.46944580    -0.35200
C297        C  0.11255100  0.94521487  0.47597687     0.01000
C298        C  0.13241987  0.96705216  0.49422881     0.07000
C299        C  0.15363874  0.94234762  0.49840511    -0.06100
H300        H  0.09327477  0.95516557  0.46613410     0.07700
H301        H  0.17288035  0.94922205  0.51133809     0.08900
Cu302      Cu  0.10407120  0.86502329  0.43539320     0.44200
Cu303      Cu  0.16922577  0.85765030  0.48161505     0.42000
Cu304      Cu  0.14634793  0.78283766  0.41126919     0.43900
N305        N  0.09663929  0.82506816  0.38749388    -0.34700
N306        N  0.11302632  0.79694207  0.37662233    -0.29000
C307        C  0.10467833  0.78059343  0.33998339    -0.05100
C308        C  0.08172204  0.79891390  0.32784925     0.07100
C309        C  0.07712959  0.82682223  0.35862233     0.00900
H310        H  0.11480076  0.75758975  0.32315346     0.08600
H311        H  0.06174835  0.84849900  0.35850621     0.07700
N312        N  0.17746090  0.77544732  0.45314486    -0.36200
N313        N  0.18601594  0.80304801  0.47898050    -0.28400
C314        C  0.20558794  0.78896372  0.50332546    -0.03600
C315        C  0.20945141  0.75062663  0.49223830     0.05000
C316        C  0.19131260  0.74302968  0.46027877     0.03100
H317        H  0.21584765  0.80521019  0.52771290     0.08200
H318        H  0.18805444  0.71588074  0.44399006     0.07100
C319        C  0.02685406  0.80112993  0.25099688     0.80200
N320        N  0.04013688  0.79679663  0.21368367    -0.78100
C321        C  0.06649633  0.78995852  0.21349964     0.82600
N322        N  0.07971217  0.78718739  0.25099527    -0.78100
C323        C  0.06684167  0.79360325  0.28832660     0.82700
N324        N  0.04054749  0.80075483  0.28812685    -0.79800
N325        N  0.28939724  0.56553803  0.51880968    -0.27300
N326        N  0.31353561  0.56253863  0.53440168    -0.35200
C327        C  0.32233675  0.52631322  0.52793664     0.01000
C328        C  0.30253932  0.50559749  0.50796102     0.07000
C329        C  0.28194486  0.53118870  0.50275701    -0.06100
H330        H  0.34111062  0.51541760  0.53896147     0.07700
H331        H  0.26289986  0.52526415  0.48854562     0.08900
Cu332      Cu  0.33123659  0.60596002  0.56981975     0.44200
Cu333      Cu  0.26759038  0.61594253  0.52048157     0.42000
Cu334      Cu  0.28990018  0.68891029  0.59485370     0.43900
N335        N  0.33972607  0.64592618  0.61718552    -0.34700
N336        N  0.32374290  0.67432891  0.62877742    -0.29000
C337        C  0.33302269  0.69054879  0.66497813    -0.05100
C338        C  0.35616781  0.67188072  0.67592739     0.07100
C339        C  0.35983034  0.64389117  0.64495803     0.00900
H340        H  0.32338182  0.71362484  0.68243071     0.08600
H341        H  0.37495219  0.62181359  0.64436661     0.07700
N342        N  0.25945683  0.69751932  0.55136107    -0.36200
N343        N  0.25137589  0.67062123  0.52421496    -0.28400
C344        C  0.23231637  0.68526038  0.49929919    -0.03600
C345        C  0.22821243  0.72328255  0.51126682     0.05000
C346        C  0.24572464  0.73013511  0.54437694     0.03100
H347        H  0.22251838  0.66953848  0.47402151     0.08200
H348        H  0.24852629  0.75686184  0.56171626     0.07100
N349        N  0.29074869  0.56744567  0.98275145    -0.27300
N350        N  0.31593145  0.56600775  0.97184662    -0.35200
C351        C  0.32529495  0.53043358  0.97996463     0.01000
C352        C  0.30480780  0.50846693  0.99590241     0.07000
C353        C  0.28323270  0.53276187  0.99714113    -0.06100
H354        H  0.34503771  0.52066442  0.97246282     0.07700
H355        H  0.26346396  0.52571975  0.00750889     0.08900
Cu356      Cu  0.33441595  0.61022526  0.93892909     0.44200
Cu357      Cu  0.26771594  0.61641666  0.97808589     0.42000
Cu358      Cu  0.29141025  0.69039469  0.90954637     0.43900
N359        N  0.34257656  0.64908906  0.89059979    -0.34700
N360        N  0.32596370  0.67613703  0.87794235    -0.29000
C361        C  0.33466134  0.69099583  0.84108756    -0.05100
C362        C  0.35806172  0.67290671  0.83047037     0.07100
C363        C  0.36258991  0.64665820  0.86255568     0.00900
H364        H  0.32424878  0.71238091  0.82268904     0.08600
H365        H  0.37805040  0.62515588  0.86352879     0.07700
N366        N  0.26003346  0.69841490  0.95087819    -0.36200
N367        N  0.25142117  0.67101777  0.97634573    -0.28400
C368        C  0.23242761  0.68552262  0.00171516    -0.03600
C369        C  0.22890580  0.72391465  0.99161399     0.05000
C370        C  0.24664735  0.73114766  0.95915594     0.03100
H371        H  0.22237887  0.66948888  0.02624923     0.08200
H372        H  0.25013308  0.75837365  0.94357857     0.07100
C373        C  0.41199646  0.66736865  0.75135366     0.80200
N374        N  0.39798552  0.66946418  0.71451022    -0.78100
C375        C  0.37157289  0.67604289  0.71524289     0.82600
N376        N  0.35900205  0.68034331  0.75315968    -0.78100
C377        C  0.37248357  0.67568658  0.79015394     0.82700
N378        N  0.39887124  0.66901088  0.78911367    -0.79800
N379        N  0.28821208  0.40567009  0.48279587    -0.27300
N380        N  0.31294737  0.40763175  0.46964790    -0.35200
C381        C  0.32239277  0.44317493  0.47824827     0.01000
C382        C  0.30239590  0.46446821  0.49702878     0.07000
C383        C  0.28105209  0.43992238  0.49937412    -0.06100
H384        H  0.34171481  0.45341743  0.46909549     0.07700
H385        H  0.26159862  0.44660539  0.51160903     0.08900
Cu386      Cu  0.33051370  0.36402293  0.43402864     0.44200
Cu387      Cu  0.26496492  0.35711124  0.47694101     0.42000
Cu388      Cu  0.28786442  0.28200587  0.40697168     0.43900
N389        N  0.33872444  0.32383852  0.38652778    -0.34700
N390        N  0.32244588  0.29595065  0.37438779    -0.29000
C391        C  0.33161140  0.28004842  0.33793312    -0.05100
C392        C  0.35494643  0.29834774  0.32730508     0.07100
C393        C  0.35888882  0.32576290  0.35883327     0.00900
H394        H  0.32164658  0.25764496  0.31989092     0.08600
H395        H  0.37415924  0.34760468  0.35970818     0.07700
N396        N  0.25588746  0.27540629  0.44822481    -0.36200
N397        N  0.24744011  0.30350358  0.47349572    -0.28400
C398        C  0.22779354  0.29030106  0.49819068    -0.03600
C399        C  0.22367645  0.25188178  0.48819068     0.05000
C400        C  0.24176743  0.24334714  0.45627010     0.03100
H401        H  0.21791124  0.30710361  0.52253489     0.08200
H402        H  0.24494064  0.21573775  0.44093821     0.07100
N403        N  0.29220113  0.40688607  0.01538343    -0.27300
N404        N  0.31643893  0.41003683  0.03071682    -0.35200
C405        C  0.32503454  0.44642177  0.02511546     0.01000
C406        C  0.30503970  0.46719804  0.00607607     0.07000
C407        C  0.28452589  0.44137281  0.00051371    -0.06100
H408        H  0.34386166  0.45737873  0.03606116     0.07700
H409        H  0.26539548  0.44721205  0.98669085     0.08900
Cu410      Cu  0.33468459  0.36679514  0.06515541     0.44200
Cu411      Cu  0.27032475  0.35603366  0.01518124     0.42000
Cu412      Cu  0.29324939  0.28317471  0.08589717     0.43900
N413        N  0.34196458  0.32701276  0.11268519    -0.34700
N414        N  0.32583863  0.29834374  0.12222878    -0.29000
C415        C  0.33377720  0.28227087  0.15895606    -0.05100
C416        C  0.35622357  0.30130898  0.17256872     0.07100
C417        C  0.36092919  0.32935969  0.14252304     0.00900
H418        H  0.32372697  0.25893899  0.17482066     0.08600
H419        H  0.37597606  0.35148577  0.14377565     0.07700
N420        N  0.26208645  0.27449419  0.04415928    -0.36200
N421        N  0.25347336  0.30131591  0.01792162    -0.28400
C422        C  0.23351954  0.28663087  0.99446246    -0.03600
C423        C  0.22945294  0.24874280  0.00663750     0.05000
C424        C  0.24790442  0.24208946  0.03822975     0.03100
H425        H  0.22292594  0.30227291  0.97020911     0.08200
H426        H  0.25100666  0.21556097  0.05539207     0.07100
C427        C  0.41029675  0.30341518  0.25101960     0.80200
N428        N  0.39701609  0.30223716  0.21347340    -0.78100
C429        C  0.37058037  0.29634809  0.21264003     0.82600
N430        N  0.35722108  0.29145971  0.24972753    -0.78100
C431        C  0.37007956  0.29482024  0.28759601     0.82700
N432        N  0.39655888  0.30105869  0.28808901    -0.79800
C433        C  0.48133198  0.31769251  0.28683203    -0.21400
C434        C  0.49531687  0.30413642  0.25102255    -0.09400
C435        C  0.48105554  0.29162520  0.21492062     0.29500
C436        C  0.45352607  0.29223771  0.21507627    -0.21400
C437        C  0.43950763  0.30515339  0.25109319    -0.09400
C438        C  0.45371447  0.31842344  0.28689049     0.29500
F439        F  0.44101011  0.33263431  0.32171959    -0.19900
H440        H  0.49178450  0.32791282  0.31482199     0.17800
H441        H  0.44316397  0.28160276  0.18716414     0.17800
F442        F  0.49356263  0.27739289  0.17989718    -0.19900
C443        C  0.48322338  0.66643481  0.71252511    -0.21400
C444        C  0.49733697  0.66668352  0.75113036    -0.09400
C445        C  0.48304347  0.66503697  0.78962104     0.29500
C446        C  0.45547080  0.66430354  0.78921250    -0.21400
C447        C  0.44133389  0.66521579  0.75065736    -0.09400
C448        C  0.45563990  0.66568843  0.71211783     0.29500
F449        F  0.44317454  0.66613857  0.67384092    -0.19900
H450        H  0.49350207  0.66739482  0.68231228     0.17800
H451        H  0.44520040  0.66367703  0.81945171     0.17800
F452        F  0.49549575  0.66480176  0.82791412    -0.19900
C453        C  0.95598609  0.81166800  0.28891082    -0.21400
C454        C  0.94186206  0.80445067  0.25112857    -0.09400
C455        C  0.95603264  0.79898279  0.21287351     0.29500
C456        C  0.98355911  0.79903776  0.21305768    -0.21400
C457        C  0.99769265  0.80465575  0.25113111    -0.09400
C458        C  0.98354748  0.81195277  0.28903644     0.29500
F459        F  0.99616179  0.81896491  0.32647562    -0.19900
H460        H  0.94572638  0.81662721  0.31869401     0.17800
H461        H  0.99375422  0.79367074  0.18332048     0.17800
F462        F  0.94351791  0.79228289  0.17528081    -0.19900
C463        C  0.98035854  0.17204691  0.79204572    -0.21400
C464        C  0.99445228  0.16246722  0.75484552    -0.09400
C465        C  0.98018505  0.15294511  0.71764108     0.29500
C466        C  0.95260539  0.15383884  0.71768490    -0.21400
C467        C  0.93853022  0.16413081  0.75465517    -0.09400
C468        C  0.95277221  0.17309889  0.79204865     0.29500
F469        F  0.94021851  0.18427725  0.82832331    -0.19900
H470        H  0.99070686  0.17985467  0.82108461     0.17800
H471        H  0.94225981  0.14646646  0.68853005     0.17800
F472        F  0.99275547  0.14259824  0.68109988    -0.19900
loop_ 
_geom_bond_atom_site_label_1 
_geom_bond_atom_site_label_2 
_geom_bond_distance 
_geom_bond_site_symmetry_2 
_ccdc_geom_bond_type 
N1            N2   1.322       .  A
N1            C5   1.344       .  A
N1           Cu9   2.068       .  S
N2            C3   1.347       .  A
N2           Cu8   2.077       .  S
C3            C4   1.383   1_545  A
C3            H6   1.081       .  S
C4            C5   1.381   1_565  A
C4           C58   1.468       .  S
C5            H7   1.082       .  S
Cu8          N11   2.077       .  S
Cu9          N19   2.068       .  S
Cu10         N12   2.073       .  S
Cu10         N18   2.073       .  S
N11          N12   1.323       .  A
N11          C15   1.344       .  A
N12          C13   1.346       .  A
C13          C14   1.382       .  A
C13          H16   1.082       .  S
C14          C15   1.381       .  A
C14          C51   1.467       .  S
C15          H17   1.083       .  S
N18          N19   1.322       .  A
N18          C22   1.344       .  A
N19          C20   1.345       .  A
C20          C21   1.382       .  A
C20          H23   1.079       .  S
C21          C22   1.384       .  A
C21         C207   1.469       .  S
C22          H24   1.079       .  S
N25          N26   1.323       .  A
N25          C29   1.344   1_556  A
N25         Cu33   2.079       .  S
N26          C27   1.349       .  A
N26         Cu32   2.082       .  S
C27          C28   1.384   1_556  A
C27          H30   1.082       .  S
C28          C29   1.382       .  A
C28          C82   1.471   1_545  S
C29          H31   1.082       .  S
Cu32         N35   2.082       .  S
Cu33         N43   2.078       .  S
Cu34         N36   2.071       .  S
Cu34         N42   2.070       .  S
N35          N36   1.324       .  A
N35          C39   1.345       .  A
N36          C37   1.346       .  A
C37          C38   1.381       .  A
C37          H40   1.081       .  S
C38          C39   1.383       .  A
C38          C53   1.466       .  S
C39          H41   1.082       .  S
N42          N43   1.321       .  A
N42          C46   1.346       .  A
N43          C44   1.346   1_556  A
C44          C45   1.385   1_554  A
C44          H47   1.081       .  S
C45          C46   1.384       .  A
C45         C183   1.474   1_556  S
C46          H48   1.081       .  S
C49          N50   1.360       .  A
C49          N54   1.358       .  A
C49         C467   1.485       .  S
N50          C51   1.358       .  A
C51          N52   1.359       .  A
N52          C53   1.359       .  A
C53          N54   1.357       .  A
N55          N56   1.322       .  A
N55          C59   1.344       .  A
N55         Cu63   2.069       .  S
N56          C57   1.347       .  A
N56         Cu62   2.078       .  S
C57          C58   1.383       .  A
C57          H60   1.082       .  S
C58          C59   1.381       .  A
C59          H61   1.082       .  S
Cu62         N65   2.079       .  S
Cu63         N73   2.069       .  S
Cu64         N66   2.075       .  S
Cu64         N72   2.075       .  S
N65          N66   1.324       .  A
N65          C69   1.345       .  A
N66          C67   1.346       .  A
C67          C68   1.381       .  A
C67          H70   1.082       .  S
C68          C69   1.382       .  A
C68         C105   1.466       .  S
C69          H71   1.082       .  S
N72          N73   1.321       .  A
N72          C76   1.347       .  A
N73          C74   1.344       .  A
C74          C75   1.382       .  A
C74          H77   1.079       .  S
C75          C76   1.385       .  A
C75         C129   1.471       .  S
C76          H78   1.079       .  S
N79          N80   1.322       .  A
N79          C83   1.343       .  A
N79         Cu87   2.071       .  S
N80          C81   1.349       .  A
N80         Cu86   2.079       .  S
C81          C82   1.385       .  A
C81          H84   1.081       .  S
C82          C83   1.381       .  A
C83          H85   1.082   1_554  S
Cu86         N89   2.079       .  S
Cu87         N97   2.071       .  S
Cu88         N90   2.074       .  S
Cu88         N96   2.074       .  S
N89          N90   1.324       .  A
N89          C93   1.343       .  A
N90          C91   1.347       .  A
C91          C92   1.381       .  A
C91          H94   1.081       .  S
C92          C93   1.381       .  A
C92         C107   1.465       .  S
C93          H95   1.082       .  S
N96          N97   1.321       .  A
N96         C100   1.346       .  A
N97          C98   1.344       .  A
C98          C99   1.383       .  A
C98         H101   1.081   1_554  S
C99         C100   1.385       .  A
C99         C153   1.472   1_554  S
C100        H102   1.081       .  S
C103        N104   1.359       .  A
C103        N108   1.356       .  A
C103        C454   1.484       .  S
N104        C105   1.358       .  A
C105        N106   1.359       .  A
N106        C107   1.358       .  A
C107        N108   1.355       .  A
N109        N110   1.322       .  A
N109        C113   1.344       .  A
N109       Cu117   2.072       .  S
N110        C111   1.347       .  A
N110       Cu116   2.074       .  S
C111        C112   1.382       .  A
C111        H114   1.081       .  S
C112        C113   1.381       .  A
C112        C190   1.466       .  S
C113        H115   1.082       .  S
Cu116       N119   2.074       .  S
Cu117       N127   2.073       .  S
Cu118       N120   2.073       .  S
Cu118       N126   2.073       .  S
N119        N120   1.323       .  A
N119        C123   1.343       .  A
N120        C121   1.346       .  A
C121        C122   1.382       .  A
C121        H124   1.082       .  S
C122        C123   1.381       .  A
C122        C159   1.464       .  S
C123        H125   1.083       .  S
N126        N127   1.322       .  A
N126        C130   1.344       .  A
N127        C128   1.346       .  A
C128        C129   1.384       .  A
C128        H131   1.079       .  S
C129        C130   1.383       .  A
C130        H132   1.079       .  S
N133        N134   1.322       .  A
N133        C137   1.343       .  A
N133       Cu141   2.068       .  S
N134        C135   1.348       .  A
N134       Cu140   2.078       .  S
C135        C136   1.383       .  A
C135        H138   1.081       .  S
C136        C137   1.379       .  A
C136        C166   1.467   1_556  S
C137        H139   1.082   1_556  S
Cu140       N143   2.078       .  S
Cu141       N151   2.068       .  S
Cu142       N144   2.078       .  S
Cu142       N150   2.078       .  S
N143        N144   1.324       .  A
N143        C147   1.344       .  A
N144        C145   1.347       .  A
C145        C146   1.383       .  A
C145        H148   1.081       .  S
C146        C147   1.381       .  A
C146        C161   1.467       .  S
C147        H149   1.082       .  S
N150        N151   1.321       .  A
N150        C154   1.345       .  A
N151        C152   1.345   1_556  A
C152        C153   1.383   1_554  A
C152        H155   1.081       .  S
C153        C154   1.385       .  A
C154        H156   1.081       .  S
C157        N158   1.359       .  A
C157        N162   1.358       .  A
C157        C444   1.488       .  S
N158        C159   1.358       .  A
C159        N160   1.359       .  A
N160        C161   1.358       .  A
C161        N162   1.357       .  A
N163        N164   1.323       .  A
N163        C167   1.344       .  A
N163       Cu171   2.074       .  S
N164        C165   1.347       .  A
N164       Cu170   2.074       .  S
C165        C166   1.382       .  A
C165        H168   1.082       .  S
C166        C167   1.381       .  A
C167        H169   1.082   1_554  S
Cu170       N173   2.074       .  S
Cu171       N181   2.075       .  S
Cu172       N174   2.075       .  S
Cu172       N180   2.075       .  S
N173        N174   1.323       .  A
N173        C177   1.344       .  A
N174        C175   1.346       .  A
C175        C176   1.382       .  A
C175        H178   1.081       .  S
C176        C177   1.381       .  A
C176        C213   1.465       .  S
C177        H179   1.082       .  S
N180        N181   1.322       .  A
N180        C184   1.346       .  A
N181        C182   1.346   1_554  A
C182        C183   1.384   1_556  A
C182        H185   1.081       .  S
C183        C184   1.384       .  A
C184        H186   1.081       .  S
N187        N188   1.321       .  A
N187        C191   1.342       .  A
N187       Cu195   2.060       .  S
N188        C189   1.347       .  A
N188       Cu194   2.077       .  S
C189        C190   1.384       .  A
C189        H192   1.081       .  S
C190        C191   1.379       .  A
C191        H193   1.082       .  S
Cu194       N197   2.077       .  S
Cu195       N205   2.060       .  S
Cu196       N198   2.074       .  S
Cu196       N204   2.073       .  S
N197        N198   1.324       .  A
N197        C201   1.345       .  A
N198        C199   1.345       .  A
C199        C200   1.381       .  A
C199        H202   1.082       .  S
C200        C201   1.381       .  A
C200        C215   1.465       .  S
C201        H203   1.083       .  S
N204        N205   1.320       .  A
N204        C208   1.347       .  A
N205        C206   1.342       .  A
C206        C207   1.381       .  A
C206        H209   1.079       .  S
C207        C208   1.386       .  A
C208        H210   1.079       .  S
C211        N212   1.358       .  A
C211        N216   1.360       .  A
C211        C434   1.482       .  S
N212        C213   1.356       .  A
C213        N214   1.357       .  A
N214        C215   1.359       .  A
C215        N216   1.359       .  A
N217        N218   1.322       .  A
N217        C221   1.343       .  A
N217       Cu225   2.062       .  S
N218        C219   1.347       .  A
N218       Cu224   2.075       .  S
C219        C220   1.383       .  A
C219        H222   1.081       .  S
C220        C221   1.380       .  A
C220        C298   1.465   1_545  S
C221        H223   1.082       .  S
Cu224       N227   2.076       .  S
Cu225       N235   2.062       .  S
Cu226       N228   2.092       .  S
Cu226       N234   2.092       .  S
N227        N228   1.324       .  A
N227        C231   1.344       .  A
N228        C229   1.349       .  A
C229        C230   1.385       .  A
C229        H232   1.082       .  S
C230        C231   1.380       .  A
C230        C267   1.469       .  S
C231        H233   1.083       .  S
N234        N235   1.322       .  A
N234        C238   1.348       .  A
N235        C236   1.344       .  A
C236        C237   1.380       .  A
C236        H239   1.079       .  S
C237        C238   1.388       .  A
C237        C399   1.474       .  S
C238        H240   1.079       .  S
N241        N242   1.323       .  A
N241        C245   1.343   1_556  A
N241       Cu249   2.073       .  S
N242        C243   1.348       .  A
N242       Cu248   2.080       .  S
C243        C244   1.382   1_556  A
C243        H246   1.082       .  S
C244        C245   1.380       .  A
C244        C274   1.467   1_545  S
C245        H247   1.082       .  S
Cu248       N251   2.080       .  S
Cu249       N259   2.073       .  S
Cu250       N252   2.079       .  S
Cu250       N258   2.079       .  S
N251        N252   1.323       .  A
N251        C255   1.346       .  A
N252        C253   1.346       .  A
C253        C254   1.382       .  A
C253        H256   1.081       .  S
C254        C255   1.384       .  A
C254        C269   1.470       .  S
C255        H257   1.082       .  S
N258        N259   1.321       .  A
N258        C262   1.347       .  A
N259        C260   1.345   1_556  A
C260        C261   1.384   1_554  A
C260        H263   1.081       .  S
C261        C262   1.385       .  A
C261        C423   1.475   1_556  S
C262        H264   1.081       .  S
C265        N266   1.359       .  A
C265        N270   1.360       .  A
C265        C464   1.486   1_455  S
N266        C267   1.357       .  A
C267        N268   1.358       .  A
N268        C269   1.360       .  A
C269        N270   1.359       .  A
N271        N272   1.322       .  A
N271        C275   1.342       .  A
N271       Cu279   2.067       .  S
N272        C273   1.348       .  A
N272       Cu278   2.075       .  S
C273        C274   1.383       .  A
C273        H276   1.081       .  S
C274        C275   1.380       .  A
C275        H277   1.082   1_554  S
Cu278       N281   2.074       .  S
Cu279       N289   2.066       .  S
Cu280       N282   2.069       .  S
Cu280       N288   2.069       .  S
N281        N282   1.323       .  A
N281        C285   1.343       .  A
N282        C283   1.345       .  A
C283        C284   1.381       .  A
C283        H286   1.081       .  S
C284        C285   1.381       .  A
C284        C321   1.463       .  S
C285        H287   1.082       .  S
N288        N289   1.321       .  A
N288        C292   1.344       .  A
N289        C290   1.344   1_554  A
C290        C291   1.382   1_556  A
C290        H293   1.081       .  S
C291        C292   1.383       .  A
C291        C369   1.469   1_554  S
C292        H294   1.081       .  S
N295        N296   1.323       .  A
N295        C299   1.344       .  A
N295       Cu303   2.076       .  S
N296        C297   1.346       .  A
N296       Cu302   2.068       .  S
C297        C298   1.381       .  A
C297        H300   1.082       .  S
C298        C299   1.381       .  A
C299        H301   1.082       .  S
Cu302       N305   2.069       .  S
Cu303       N313   2.075       .  S
Cu304       N306   2.069       .  S
Cu304       N312   2.070       .  S
N305        N306   1.323       .  A
N305        C309   1.343       .  A
N306        C307   1.345       .  A
C307        C308   1.380       .  A
C307        H310   1.082       .  S
C308        C309   1.380       .  A
C308        C323   1.462       .  S
C309        H311   1.082       .  S
N312        N313   1.321       .  A
N312        C316   1.345       .  A
N313        C314   1.346       .  A
C314        C315   1.384       .  A
C314        H317   1.079       .  S
C315        C316   1.384       .  A
C315        C345   1.472       .  S
C316        H318   1.079       .  S
C319        N320   1.358       .  A
C319        N324   1.356       .  A
C319        C457   1.483   1_455  S
N320        C321   1.357       .  A
C321        N322   1.358       .  A
N322        C323   1.358       .  A
C323        N324   1.355       .  A
N325        N326   1.322       .  A
N325        C329   1.342       .  A
N325       Cu333   2.067       .  S
N326        C327   1.346       .  A
N326       Cu332   2.067       .  S
C327        C328   1.381       .  A
C327        H330   1.081       .  S
C328        C329   1.380       .  A
C328        C382   1.463       .  S
C329        H331   1.082       .  S
Cu332       N335   2.068       .  S
Cu333       N343   2.068       .  S
Cu334       N336   2.083       .  S
Cu334       N342   2.083       .  S
N335        N336   1.323       .  A
N335        C339   1.343       .  A
N336        C337   1.347       .  A
C337        C338   1.384       .  A
C337        H340   1.082       .  S
C338        C339   1.379       .  A
C338        C375   1.466       .  S
C339        H341   1.083       .  S
N342        N343   1.322       .  A
N342        C346   1.347       .  A
N343        C344   1.345       .  A
C344        C345   1.382       .  A
C344        H347   1.079       .  S
C345        C346   1.385       .  A
C346        H348   1.079       .  S
N349        N350   1.322       .  A
N349        C353   1.343       .  A
N349       Cu357   2.066       .  S
N350        C351   1.347       .  A
N350       Cu356   2.079       .  S
C351        C352   1.384       .  A
C351        H354   1.081       .  S
C352        C353   1.380       .  A
C352        C406   1.468   1_556  S
C353        H355   1.082   1_556  S
Cu356       N359   2.079       .  S
Cu357       N367   2.066       .  S
Cu358       N360   2.070       .  S
Cu358       N366   2.069       .  S
N359        N360   1.323       .  A
N359        C363   1.345       .  A
N360        C361   1.345       .  A
C361        C362   1.381       .  A
C361        H364   1.081       .  S
C362        C363   1.382       .  A
C362        C377   1.465       .  S
C363        H365   1.082       .  S
N366        N367   1.321       .  A
N366        C370   1.345       .  A
N367        C368   1.344   1_556  A
C368        C369   1.382   1_554  A
C368        H371   1.081       .  S
C369        C370   1.383       .  A
C370        H372   1.081       .  S
C373        N374   1.359       .  A
C373        N378   1.360       .  A
C373        C447   1.489       .  S
N374        C375   1.358       .  A
C375        N376   1.357       .  A
N376        C377   1.358       .  A
C377        N378   1.357       .  A
N379        N380   1.322       .  A
N379        C383   1.342       .  A
N379       Cu387   2.061       .  S
N380        C381   1.346       .  A
N380       Cu386   2.072       .  S
C381        C382   1.382       .  A
C381        H384   1.081       .  S
C382        C383   1.379       .  A
C383        H385   1.082       .  S
Cu386       N389   2.073       .  S
Cu387       N397   2.061       .  S
Cu388       N390   2.088       .  S
Cu388       N396   2.088       .  S
N389        N390   1.324       .  A
N389        C393   1.344       .  A
N390        C391   1.348       .  A
C391        C392   1.384       .  A
C391        H394   1.082       .  S
C392        C393   1.380       .  A
C392        C431   1.468       .  S
C393        H395   1.083       .  S
N396        N397   1.321       .  A
N396        C400   1.347       .  A
N397        C398   1.345       .  A
C398        C399   1.381       .  A
C398        H401   1.080       .  S
C399        C400   1.388       .  A
C400        H402   1.079       .  S
N403        N404   1.323       .  A
N403        C407   1.344       .  A
N403       Cu411   2.082       .  S
N404        C405   1.347       .  A
N404       Cu410   2.073       .  S
C405        C406   1.382       .  A
C405        H408   1.082       .  S
C406        C407   1.382       .  A
C407        H409   1.082   1_554  S
Cu410       N413   2.073       .  S
Cu411       N421   2.082       .  S
Cu412       N414   2.072       .  S
Cu412       N420   2.072       .  S
N413        N414   1.323       .  A
N413        C417   1.344       .  A
N414        C415   1.346       .  A
C415        C416   1.381       .  A
C415        H418   1.081       .  S
C416        C417   1.381       .  A
C416        C429   1.464       .  S
C417        H419   1.082       .  S
N420        N421   1.321       .  A
N420        C424   1.345       .  A
N421        C422   1.348   1_554  A
C422        C423   1.386   1_556  A
C422        H425   1.081       .  S
C423        C424   1.383       .  A
C424        H426   1.081       .  S
C427        N428   1.357       .  A
C427        N432   1.359       .  A
C427        C437   1.482       .  S
N428        C429   1.355       .  A
C429        N430   1.359       .  A
N430        C431   1.359       .  A
C431        N432   1.359       .  A
C433        C434   1.406       .  A
C433        C438   1.400       .  A
C433        H440   1.082       .  S
C434        C435   1.409       .  A
C435        C436   1.395       .  A
C435        F442   1.358       .  S
C436        C437   1.405       .  A
C436        H441   1.083       .  S
C437        C438   1.408       .  A
C438        F439   1.357       .  S
C443        C444   1.407       .  A
C443        C448   1.398       .  A
C443        H450   1.083       .  S
C444        C445   1.410       .  A
C445        C446   1.398       .  A
C445        F452   1.357       .  S
C446        C447   1.407       .  A
C446        H451   1.083       .  S
C447        C448   1.410       .  A
C448        F449   1.357       .  S
C453        C454   1.405       .  A
C453        C458   1.397       .  A
C453        H460   1.082       .  S
C454        C455   1.410       .  A
C455        C456   1.395       .  A
C455        F462   1.357       .  S
C456        C457   1.405       .  A
C456        H461   1.081       .  S
C457        C458   1.410       .  A
C458        F459   1.357       .  S
C463        C464   1.406       .  A
C463        C468   1.398       .  A
C463        H470   1.083       .  S
C464        C465   1.410       .  A
C465        C466   1.398       .  A
C465        F472   1.357       .  S
C466        C467   1.405       .  A
C466        H471   1.083       .  S
C467        C468   1.410       .  A
C468        F469   1.358       .  S
