geometry optimzed in LAMMPS
_audit_creation_date              2020-11-30 
_audit_creation_method            'lammps2cif' 
_symmetry_space_group_name_H-M    'P1' 
_symmetry_Int_Tables_number       1 
_symmetry_cell_setting            triclinic 
loop_ 
_symmetry_equiv_pos_as_xyz 
  x,y,z 
_cell_length_a                    67.17929776 
_cell_length_b                    67.43692469807749 
_cell_length_c                    39.705643689902566 
_cell_angle_alpha                 89.13165822511702 
_cell_angle_beta                  90.34609661049177 
_cell_angle_gamma                 89.68826725511965 
loop_ 
_atom_site_label 
_atom_site_type_symbol 
_atom_site_fract_x 
_atom_site_fract_y 
_atom_site_fract_z 
_atom_site_charge 
O1          O  0.72215306  0.12061184  0.89162959    -0.57800
C2          C  0.70381950  0.10892471  0.79560543     0.74800
O3          O  0.77060584  0.12773566  0.81597762    -0.59000
C4          C  0.73790002  0.11830867  0.90908037     0.74800
C5          C  0.74967360  0.07328077  0.83425315     0.77200
Cd6        Cd  0.73891787  0.11431688  0.83683044     1.37500
O7          O  0.70283112  0.11841714  0.82287935    -0.57800
O8          O  0.73786298  0.08010525  0.85591718    -0.56600
C9          C  0.76585788  0.14589791  0.81677013     0.77100
O10         O  0.75768658  0.08577365  0.81447449    -0.59000
O11         O  0.72105684  0.10442890  0.78565344    -0.57400
O12         O  0.75366447  0.11472373  0.89296775    -0.57400
O13         O  0.74801214  0.14966772  0.82482706    -0.56600
C14         C  0.65067403  0.09539664  0.76749674     0.86500
C15         C  0.65626536  0.07337452  0.77341532    -0.53700
C16         C  0.67521397  0.06848923  0.76433788     0.09400
C17         C  0.68700926  0.08614221  0.74977992     0.20400
C18         C  0.66689897  0.10676335  0.78668396    -0.54500
C19         C  0.68591901  0.10198896  0.77744419     0.09500
C20         C  0.65517389  0.09927515  0.73013685    -0.54000
C21         C  0.67412345  0.09462559  0.72069680     0.10100
H22         H  0.64655125  0.06225288  0.78406596     0.14600
H23         H  0.70243501  0.08220354  0.74243308     0.00400
H24         H  0.66360056  0.11715478  0.80654605     0.14900
H25         H  0.64411341  0.10518310  0.71255490     0.14700
O26         O  0.70624422  0.11169918  0.31134787    -0.57800
C27         C  0.73648350  0.11125084  0.22220254     0.74800
O28         O  0.77476239  0.11403368  0.31218399    -0.59000
C29         C  0.70780896  0.10284735  0.33962402     0.74800
C30         C  0.74526651  0.06227588  0.29650481     0.77200
Cd31       Cd  0.74093338  0.10459750  0.29410090     1.37500
O32         O  0.72405955  0.11831553  0.24278003    -0.57800
O33         O  0.73137067  0.07117821  0.28076666    -0.56600
C34         C  0.77155983  0.13253671  0.31263740     0.77100
O35         O  0.75834689  0.07309249  0.31012381    -0.59000
O36         O  0.75098084  0.10166152  0.23498520    -0.57400
O37         O  0.72510671  0.09737424  0.34846422    -0.57400
O38         O  0.75385365  0.13809568  0.30649039    -0.56600
C39         C  0.65498300  0.09192425  0.37058399     0.86500
C40         C  0.66004571  0.09474664  0.40790923    -0.53700
C41         C  0.67896553  0.08934623  0.41702367     0.09400
C42         C  0.69120085  0.08107989  0.38756571     0.20400
C43         C  0.67129080  0.10311128  0.35126987    -0.54500
C44         C  0.69023770  0.09738077  0.35987519     0.09500
C45         C  0.65964669  0.06977055  0.36490104    -0.54000
C46         C  0.67863659  0.06398596  0.37326590     0.10100
H47         H  0.64925641  0.10019953  0.42584944     0.14600
H48         H  0.70664142  0.07676627  0.39459353     0.00400
H49         H  0.66804732  0.11376725  0.33117080     0.14900
H50         H  0.64876578  0.05914814  0.35658383     0.14700
O51         O  0.72972767  0.83509485  0.88913842    -0.57800
C52         C  0.70993818  0.85112265  0.79039603     0.74800
O53         O  0.75964797  0.88036227  0.81872531    -0.59000
C54         C  0.74336514  0.84231703  0.90743105     0.74800
C55         C  0.77347397  0.81966574  0.81511225     0.77200
Cd56       Cd  0.74373770  0.84863682  0.83534977     1.37500
O57         O  0.70850864  0.84254525  0.81896813    -0.57800
O58         O  0.75541144  0.81502855  0.81950505    -0.56600
C59         C  0.74644576  0.89094991  0.83266423     0.77100
O60         O  0.77756905  0.83787817  0.81813748    -0.59000
O61         O  0.72724121  0.85610205  0.78134921    -0.57400
O62         O  0.75670257  0.85205887  0.89224177    -0.57400
O63         O  0.73315508  0.88185458  0.84907108    -0.56600
C64         C  0.65707546  0.86154619  0.75636181     0.86500
C65         C  0.66270174  0.85669156  0.71978467    -0.53700
C66         C  0.68168679  0.86178160  0.71087686     0.09400
C67         C  0.69339488  0.87153783  0.73978387     0.20400
C68         C  0.67329149  0.85134512  0.77810288    -0.54500
C69         C  0.69230446  0.85653626  0.76957394     0.09500
C70         C  0.66144091  0.88380235  0.75909747    -0.54000
C71         C  0.68036770  0.88913827  0.75094526     0.10100
H72         H  0.65247062  0.85072417  0.70154519     0.14600
H73         H  0.70881176  0.87589012  0.73321544     0.00400
H74         H  0.66994061  0.84163485  0.79936637     0.14900
H75         H  0.65036468  0.89452743  0.76706377     0.14700
O76         O  0.72704871  0.82530899  0.23957338    -0.57800
C77         C  0.70792826  0.84296946  0.33320796     0.74800
O78         O  0.77682646  0.82618701  0.30784496    -0.59000
C79         C  0.73978085  0.83294764  0.21987447     0.74800
C80         C  0.75180669  0.87941854  0.29431713     0.77200
Cd81       Cd  0.74304741  0.83797403  0.29193807     1.37500
O82         O  0.70725337  0.83323170  0.30616630    -0.57800
O83         O  0.74039620  0.87220966  0.27223222    -0.56600
C84         C  0.77262004  0.80800650  0.31098930     0.77100
O85         O  0.76011871  0.86719903  0.31459930    -0.59000
O86         O  0.72502121  0.84805066  0.34313230    -0.57400
O87         O  0.75378949  0.84236481  0.23365133    -0.57400
O88         O  0.75440852  0.80367588  0.30750049    -0.56600
C89         C  0.65443898  0.85842006  0.35358556     0.86500
C90         C  0.66125362  0.87953738  0.34441507    -0.53700
C91         C  0.67970044  0.88432994  0.35620689     0.09400
C92         C  0.69005160  0.86718058  0.37575906     0.20400
C93         C  0.67096628  0.84507888  0.33937731    -0.54500
C94         C  0.68971249  0.84979455  0.35057341     0.09500
C95         C  0.65689488  0.85668590  0.39180983    -0.54000
C96         C  0.67528655  0.86142799  0.40386537     0.10100
H97         H  0.65192929  0.89006515  0.33050881     0.14600
H98         H  0.70511843  0.87108219  0.38510714     0.00400
H99         H  0.66850316  0.83425195  0.31990864     0.14900
H100        H  0.64473279  0.85217345  0.40807884     0.14700
C101        C  0.46945789  0.10490332  0.75858000     0.86500
C102        C  0.46293243  0.11208007  0.72309730    -0.53700
C103        C  0.44420375  0.10642110  0.71393433     0.09400
C104        C  0.43339007  0.09433032  0.74135000     0.20400
C105        C  0.45312007  0.11279945  0.78196749    -0.54500
C106        C  0.43425252  0.10727784  0.77299411     0.09500
C107        C  0.46619584  0.08231142  0.75791275    -0.54000
C108        C  0.44737467  0.07680840  0.74918034     0.10100
H109        H  0.47226632  0.12000347  0.70547771     0.14600
H110        H  0.41815316  0.08968842  0.73400385     0.00400
H111        H  0.45629340  0.12146902  0.80417349     0.14900
H112        H  0.47791635  0.07154636  0.76335922     0.14700
O113        O  0.40050772  0.12329669  0.88947390    -0.57800
C114        C  0.41648236  0.11145167  0.79353298     0.74800
O115        O  0.36352466  0.08432824  0.81884557    -0.59000
C116        C  0.38549788  0.12112629  0.90830960     0.74800
C117        C  0.35340358  0.14404152  0.81600169     0.77200
Cd118      Cd  0.38230574  0.11391466  0.83705600     1.37500
O119        O  0.41745188  0.12053191  0.82119323    -0.57800
O120        O  0.37159096  0.14824031  0.82035514    -0.56600
C121        C  0.37402027  0.07213481  0.83594285     0.77100
O122        O  0.34895808  0.12592036  0.81939360    -0.59000
O123        O  0.39950720  0.10528429  0.78487342    -0.57400
O124        O  0.36957580  0.11574306  0.89409200    -0.57400
O125        O  0.38733801  0.07945252  0.85457649    -0.56600
C126        C  0.47328928  0.09916523  0.36788506     0.86500
C127        C  0.47171738  0.07641662  0.36866789    -0.53700
C128        C  0.45333975  0.06925893  0.37647359     0.09400
C129        C  0.43789204  0.08565778  0.38282467     0.20400
C130        C  0.45682019  0.10621580  0.34336571    -0.54500
C131        C  0.43827552  0.09928883  0.35125451     0.09500
C132        C  0.46569995  0.10529954  0.40290595    -0.54000
C133        C  0.44727669  0.09812770  0.41083431     0.10100
H134        H  0.48439548  0.06671195  0.36443228     0.14600
H135        H  0.42291261  0.07986794  0.38916833     0.00400
H136        H  0.45963057  0.11580236  0.32171019     0.14900
H137        H  0.47424628  0.11347989  0.42111539     0.14700
O138        O  0.42065364  0.11481909  0.30476786    -0.57800
C139        C  0.38997688  0.11827518  0.21875360     0.74800
O140        O  0.36927619  0.07895942  0.31033674    -0.59000
C141        C  0.42022300  0.10407458  0.33116765     0.74800
C142        C  0.35558276  0.13888535  0.31054298     0.77200
Cd143      Cd  0.38497789  0.10972105  0.28944727     1.37500
O144        O  0.40336551  0.12279127  0.23989390    -0.57800
O145        O  0.37332611  0.14370226  0.30393014    -0.56600
C146        C  0.37441967  0.06869876  0.28534543     0.77100
O147        O  0.35179774  0.12057732  0.30937127    -0.59000
O148        O  0.37437304  0.11047975  0.23061696    -0.57400
O149        O  0.40344404  0.09724471  0.33930497    -0.57400
O150        O  0.38381585  0.07763374  0.26221574    -0.56600
C151        C  0.47469709  0.86987811  0.77255656     0.86500
C152        C  0.46938574  0.89209668  0.77585343    -0.53700
C153        C  0.45035483  0.89698135  0.76655881     0.09400
C154        C  0.43802108  0.87908304  0.75545317     0.20400
C155        C  0.45886379  0.85907498  0.79371547    -0.54500
C156        C  0.43965613  0.86385851  0.78489645     0.09500
C157        C  0.46928202  0.86524315  0.73586023    -0.54000
C158        C  0.45021046  0.87003409  0.72675331     0.10100
H159        H  0.47954352  0.90347944  0.78381760     0.14600
H160        H  0.42251537  0.88300654  0.74802552     0.00400
H161        H  0.46257229  0.84889973  0.81429288     0.14900
H162        H  0.48001243  0.85943355  0.71812302     0.14700
O163        O  0.42346841  0.84548125  0.82965423    -0.57800
C164        C  0.39065929  0.83754010  0.91598646     0.74800
O165        O  0.37001711  0.87868120  0.82444827    -0.59000
C166        C  0.42206443  0.85669476  0.80379047     0.74800
C167        C  0.36128991  0.81739344  0.82071571     0.77200
Cd168      Cd  0.38748797  0.84837726  0.84511231     1.37500
O169        O  0.40616132  0.83919066  0.89807565    -0.57800
O170        O  0.37989566  0.81466966  0.82385910    -0.56600
C171        C  0.37568426  0.88930140  0.84869917     0.77100
O172        O  0.35508305  0.83477804  0.82632213    -0.59000
O173        O  0.37423428  0.84049868  0.90094231    -0.57400
O174        O  0.40471161  0.86229365  0.79559724    -0.57400
O175        O  0.38535482  0.88058038  0.87203701    -0.56600
C176        C  0.47319144  0.85798649  0.37975049     0.86500
C177        C  0.46617374  0.85168339  0.41505112    -0.53700
C178        C  0.44740400  0.85786598  0.42288381     0.09400
C179        C  0.43691709  0.86933305  0.39390086     0.20400
C180        C  0.45730619  0.84954175  0.35581565    -0.54500
C181        C  0.43826037  0.85537188  0.36333624     0.09500
C182        C  0.46984506  0.88050596  0.37799365    -0.54000
C183        C  0.45105920  0.88660643  0.38558401     0.10100
H184        H  0.47581704  0.84403191  0.43312609     0.14600
H185        H  0.42157282  0.87423775  0.40004033     0.00400
H186        H  0.46052007  0.83994668  0.33487789     0.14900
H187        H  0.48163348  0.89085153  0.37160974     0.14700
O188        O  0.40655903  0.83475578  0.24956156    -0.57800
C189        C  0.42068606  0.84989570  0.34280042     0.74800
O190        O  0.37130158  0.87480813  0.32357892    -0.59000
C191        C  0.39265313  0.83727573  0.22812801     0.74800
C192        C  0.35682935  0.81454089  0.31836827     0.77200
Cd193      Cd  0.38613148  0.84472185  0.29919035     1.37500
O194        O  0.42222694  0.84172383  0.31441818    -0.57800
O195        O  0.37486532  0.81004784  0.31307420    -0.56600
C196        C  0.37486415  0.88610202  0.29865159     0.77100
O197        O  0.35271506  0.83284268  0.31683156    -0.59000
O198        O  0.40321916  0.85384885  0.35222716    -0.57400
O199        O  0.37603108  0.84278695  0.23972196    -0.57400
O200        O  0.38268109  0.87804943  0.27335353    -0.56600
O201        O  0.20183891  0.62637564  0.81856724    -0.57800
C202        C  0.20452328  0.66124395  0.90294359     0.74800
O203        O  0.21069087  0.69437294  0.80842717    -0.59000
C204        C  0.19257391  0.62726899  0.79067338     0.74800
C205        C  0.15640274  0.67175163  0.82916940     0.77200
Cd206      Cd  0.19830466  0.66234411  0.83057879     1.37500
O207        O  0.21084080  0.64719932  0.88489817    -0.57800
O208        O  0.16400950  0.65915072  0.84943348    -0.56600
C209        C  0.22900409  0.68991600  0.80811154     0.77100
O210        O  0.16839796  0.68091553  0.80999275    -0.59000
O211        O  0.19602835  0.67547205  0.88738309    -0.57400
O212        O  0.18831986  0.64442332  0.77954163    -0.57400
O213        O  0.23327082  0.67213150  0.81611495    -0.56600
C214        C  0.17670509  0.57440743  0.76854305     0.86500
C215        C  0.18086256  0.57691750  0.73076970    -0.53700
C216        C  0.17780160  0.59560401  0.71800896     0.09400
C217        C  0.16995530  0.61021708  0.74444048     0.20400
C218        C  0.18912759  0.59054358  0.78554991    -0.54500
C219        C  0.18549826  0.60932260  0.77333830     0.09500
C220        C  0.15497838  0.58155404  0.77210987    -0.54000
C221        C  0.15140686  0.60022431  0.75963671     0.10100
H222        H  0.18581923  0.56470282  0.71534299     0.14600
H223        H  0.16703725  0.62543341  0.73448370     0.00400
H224        H  0.19903828  0.58745365  0.80671691     0.14900
H225        H  0.14301418  0.57278525  0.78259008     0.14700
O226        O  0.19921887  0.61905160  0.30335409    -0.57800
C227        C  0.19965016  0.64969255  0.21511565     0.74800
O228        O  0.16659813  0.67018168  0.31568819    -0.59000
C229        C  0.19069744  0.62086524  0.33155678     0.74800
C230        C  0.22790051  0.68226157  0.30498217     0.77200
Cd231      Cd  0.19572532  0.65501585  0.28730738     1.37500
O232        O  0.20690216  0.63702313  0.23581145    -0.57800
O233        O  0.23087967  0.66386944  0.30143919    -0.56600
C234        C  0.15423596  0.66574388  0.29281933     0.77100
O235        O  0.21005579  0.68801536  0.30127858    -0.59000
O236        O  0.19091192  0.66443590  0.22787255    -0.57400
O237        O  0.18629113  0.63828416  0.33999857    -0.57400
O238        O  0.16133423  0.65771141  0.26689026    -0.56600
C239        C  0.17933355  0.56901552  0.36813153     0.86500
C240        C  0.15709921  0.57385669  0.36271097    -0.53700
C241        C  0.15176129  0.59298762  0.36943349     0.09400
C242        C  0.16944192  0.60560372  0.38136009     0.20400
C243        C  0.19009752  0.58453913  0.34593123    -0.54500
C244        C  0.18485752  0.60369769  0.35282307     0.09500
C245        C  0.18386604  0.57515617  0.40442349    -0.54000
C246        C  0.17854679  0.59412825  0.41161213     0.10100
H247        H  0.14648014  0.56279942  0.35461352     0.14600
H248        H  0.16541039  0.62116471  0.38706624     0.00400
H249        H  0.20009944  0.58104875  0.32555605     0.14900
H250        H  0.18995661  0.56497810  0.42335402     0.14700
O251        O  0.92743972  0.62261853  0.82215135    -0.57800
C252        C  0.92292183  0.65304640  0.90769675     0.74800
O253        O  0.96201236  0.67635959  0.81802906    -0.59000
C254        C  0.93693197  0.62382690  0.79474956     0.74800
C255        C  0.89997740  0.68458590  0.81480015     0.77200
Cd256      Cd  0.93188037  0.65794576  0.83706778     1.37500
O257        O  0.92494741  0.63816471  0.88889220    -0.57800
O258        O  0.89697088  0.66624293  0.81970016    -0.56600
C259        C  0.97315584  0.66944012  0.84128494     0.77100
O260        O  0.91781223  0.69024039  0.81805482    -0.59000
O261        O  0.92474282  0.66991371  0.89368384    -0.57400
O262        O  0.94250043  0.64095543  0.78570764    -0.57400
O263        O  0.96496153  0.65811695  0.86264456    -0.56600
C264        C  0.94619615  0.57113518  0.76174604     0.86500
C265        C  0.96866095  0.57550079  0.76106369    -0.53700
C266        C  0.97337335  0.59432550  0.75117399     0.09400
C267        C  0.95509741  0.60739106  0.74304838     0.20400
C268        C  0.93747569  0.58717313  0.78484613    -0.54500
C269        C  0.94215009  0.60616575  0.77498031     0.09500
C270        C  0.93864309  0.57700797  0.72645214    -0.54000
C271        C  0.94333545  0.59584084  0.71636220     0.10100
H272        H  0.97996722  0.56443065  0.76726332     0.14600
H273        H  0.95899886  0.62272073  0.73500827     0.00400
H274        H  0.92892512  0.58409999  0.80734453     0.14900
H275        H  0.93100208  0.56667089  0.71018015     0.14700
O276        O  0.91808155  0.62628443  0.23795828    -0.57800
C277        C  0.93360395  0.61149197  0.33574305     0.74800
O278        O  0.95988003  0.66301210  0.30146442    -0.59000
C279        C  0.92086184  0.64079683  0.21789567     0.74800
C280        C  0.89829104  0.67179755  0.30922350     0.77200
Cd281      Cd  0.92903377  0.64412156  0.28892382     1.37500
O282        O  0.92436744  0.60902382  0.30819538    -0.57800
O283        O  0.89470371  0.65364760  0.30424699    -0.56600
C284        C  0.97137207  0.65086034  0.28699880     0.77100
O285        O  0.91636153  0.67692105  0.30709480    -0.59000
O286        O  0.93806775  0.62912234  0.34292929    -0.57400
O287        O  0.92678127  0.65673022  0.23095304    -0.57400
O288        O  0.96310333  0.63651925  0.27242095    -0.56600
C289        C  0.95019657  0.56068064  0.37201406     0.86500
C290        C  0.94682791  0.56674888  0.40862954    -0.53700
C291        C  0.95058046  0.58619288  0.41487797     0.09400
C292        C  0.95730823  0.59805942  0.38362463     0.20400
C293        C  0.93693894  0.57517224  0.35100256    -0.54500
C294        C  0.94079038  0.59480267  0.35716749     0.09500
C295        C  0.97148737  0.56730871  0.36370416    -0.54000
C296        C  0.97527239  0.58680732  0.36941375     0.10100
H297        H  0.94220414  0.55634216  0.42818390     0.14600
H298        H  0.96042919  0.61389992  0.38863612     0.00400
H299        H  0.92651268  0.57068976  0.33168273     0.14900
H300        H  0.98259885  0.55732710  0.35349969     0.14700
C301        C  0.17664479  0.39342276  0.78011526     0.86500
C302        C  0.15498845  0.38588119  0.78101935    -0.53700
C303        C  0.15264598  0.36693987  0.77012722     0.09400
C304        C  0.17221721  0.35720780  0.75878451     0.20400
C305        C  0.18865656  0.37783103  0.80047423    -0.54500
C306        C  0.18622790  0.35885611  0.78944865     0.09500
C307        C  0.18282905  0.39041597  0.74323448    -0.54000
C308        C  0.18095368  0.37141487  0.73205764     0.10100
H309        H  0.14229066  0.39482779  0.78815711     0.14600
H310        H  0.17024965  0.34175468  0.75028769     0.00400
H311        H  0.19737872  0.38139186  0.82266781     0.14900
H312        H  0.18794018  0.40248103  0.72717040     0.14700
O313        O  0.20860142  0.31974080  0.90319748    -0.57800
C314        C  0.19291016  0.34103832  0.80847266     0.74800
O315        O  0.20968239  0.27271049  0.83350980    -0.59000
C316        C  0.20050265  0.30656063  0.92156344     0.74800
C317        C  0.15399240  0.29999943  0.84207160     0.77200
Cd318      Cd  0.19627498  0.30572199  0.84921884     1.37500
O319        O  0.20065125  0.34185233  0.83762511    -0.57800
O320        O  0.16169657  0.31254168  0.86148862    -0.56600
C321        C  0.22735499  0.27833375  0.82814450     0.77100
O322        O  0.16598888  0.28881033  0.82654519    -0.59000
O323        O  0.18954575  0.32394812  0.79719395    -0.57400
O324        O  0.19123803  0.29306714  0.90631782    -0.57400
O325        O  0.23051099  0.29671852  0.83123033    -0.56600
C326        C  0.18367550  0.38588375  0.38967748     0.86500
C327        C  0.19150087  0.37833210  0.42394692    -0.53700
C328        C  0.18681716  0.35914407  0.43154420     0.09400
C329        C  0.17524269  0.34882776  0.40325569     0.20400
C330        C  0.19248127  0.37117345  0.36416860    -0.54500
C331        C  0.18809080  0.35169992  0.37152148     0.09500
C332        C  0.16131317  0.38128874  0.38989009    -0.54000
C333        C  0.15683336  0.36198633  0.39678927     0.10100
H334        H  0.19897778  0.38791292  0.44171128     0.14600
H335        H  0.17152246  0.33313472  0.40913294     0.00400
H336        H  0.20103314  0.37546869  0.34222053     0.14900
H337        H  0.14996388  0.39241820  0.38426990     0.14700
O338        O  0.20907479  0.32106742  0.25363895    -0.57800
C339        C  0.19324398  0.33491649  0.34957918     0.74800
O340        O  0.17011357  0.27900003  0.31850356    -0.59000
C341        C  0.20423603  0.30783021  0.23289775     0.74800
C342        C  0.22967637  0.27442090  0.32151289     0.77200
Cd343      Cd  0.19758446  0.30200446  0.30411009     1.37500
O344        O  0.20025460  0.33743585  0.32033140    -0.57800
O345        O  0.23291078  0.29275498  0.31706045    -0.56600
C346        C  0.15651252  0.28981355  0.30560766     0.77100
O347        O  0.21164565  0.26921538  0.32020502    -0.59000
O348        O  0.18996120  0.31718008  0.35866226    -0.57400
O349        O  0.19639362  0.29237609  0.24522855    -0.57400
O350        O  0.16203266  0.30583324  0.29164923    -0.56600
C351        C  0.94958538  0.38747760  0.76217653     0.86500
C352        C  0.94242631  0.38212709  0.72673640    -0.53700
C353        C  0.94546589  0.36280611  0.71840100     0.09400
C354        C  0.95534620  0.35031095  0.74674430     0.20400
C355        C  0.93873646  0.37267470  0.78583754    -0.54500
C356        C  0.94179917  0.35315556  0.77763160     0.09500
C357        C  0.97147198  0.38064530  0.76380382    -0.54000
C358        C  0.97453899  0.36137843  0.75562669     0.10100
H359        H  0.93612221  0.39302061  0.70921308     0.14600
H360        H  0.95800900  0.33458705  0.74008157     0.00400
H361        H  0.93017889  0.37691596  0.80764937     0.14900
H362        H  0.98362565  0.39029842  0.77103460     0.14700
O363        O  0.92081095  0.31700531  0.89557840    -0.57800
C364        C  0.93518906  0.33599885  0.79838717     0.74800
O365        O  0.95828967  0.28338911  0.81571543    -0.59000
C366        C  0.92614080  0.30199154  0.91318335     0.74800
C367        C  0.89582847  0.27598016  0.82360888     0.77200
Cd368      Cd  0.92951000  0.30120631  0.84090065     1.37500
O369        O  0.92787123  0.33773990  0.82757158    -0.57800
O370        O  0.89369620  0.29427383  0.82948620    -0.56600
C371        C  0.97086119  0.29006167  0.83659992     0.77100
O372        O  0.91358057  0.26956935  0.82382581    -0.59000
O373        O  0.93772173  0.31850694  0.78824016    -0.57400
O374        O  0.93246394  0.28718115  0.89717392    -0.57400
O375        O  0.96399612  0.30069155  0.85982789    -0.56600
C376        C  0.95120923  0.37790361  0.36693321     0.86500
C377        C  0.97342929  0.37182640  0.36709582    -0.53700
C378        C  0.97696517  0.35281818  0.37758253     0.09400
C379        C  0.95810057  0.34137004  0.38711614     0.20400
C380        C  0.94089478  0.36227149  0.34525687    -0.54500
C381        C  0.94454790  0.34315397  0.35565601     0.09500
C382        C  0.94456120  0.37325862  0.40324749    -0.54000
C383        C  0.94807301  0.35416955  0.41405078     0.10100
H384        H  0.98572176  0.38172757  0.36209433     0.14600
H385        H  0.96121385  0.32582958  0.39515929     0.00400
H386        H  0.93212494  0.36600421  0.32296513     0.14900
H387        H  0.93860645  0.38460002  0.41953238     0.14700
O388        O  0.91850782  0.30725811  0.24650762    -0.57800
C389        C  0.93865263  0.32565716  0.33606286     0.74800
O390        O  0.92015708  0.25645170  0.30135225    -0.59000
C391        C  0.93021982  0.29974290  0.22520030     0.74800
C392        C  0.97485355  0.27917583  0.30835033     0.77200
Cd393      Cd  0.93410935  0.29045593  0.29619362     1.37500
O394        O  0.93310710  0.32693384  0.30553551    -0.57800
O395        O  0.96761496  0.27990572  0.27884698    -0.56600
C396        C  0.90291784  0.26168984  0.31033465     0.77100
O397        O  0.96279550  0.28176220  0.33224945    -0.59000
O398        O  0.94010295  0.30838276  0.34857755    -0.57400
O399        O  0.94373779  0.28842113  0.23691506    -0.57400
O400        O  0.90033651  0.28008407  0.31432483    -0.56600
C401        C  0.92817389  0.30360999  0.18853373    -0.03200
C402        C  0.91156646  0.31387967  0.17527800    -0.05800
C403        C  0.90929852  0.31661666  0.14041191    -0.20900
C404        C  0.92347371  0.30899685  0.11815716     0.24900
C405        C  0.94041522  0.29927076  0.13154296    -0.18400
C406        C  0.94266956  0.29652700  0.16630246    -0.11600
C407        C  0.92044347  0.31159187  0.08118839    -0.18700
C408        C  0.92723468  0.29817369  0.05915900    -0.23500
C409        C  0.92561683  0.29982120  0.02176950     0.26900
C410        C  0.93292278  0.28391892  0.00302459    -0.20200
C411        C  0.93284587  0.28470257  0.96794656    -0.09900
C412        C  0.92543452  0.30144606  0.95046266    -0.10400
C413        C  0.91786591  0.31738048  0.96896279    -0.03400
C414        C  0.91793410  0.31660435  0.00433523    -0.18500
H415        H  0.90018157  0.31954126  0.19181751     0.10600
H416        H  0.89624572  0.32435578  0.13076037     0.10700
H417        H  0.95205758  0.29388449  0.11527293     0.10300
H418        H  0.95576901  0.28878870  0.17577043     0.11500
H419        H  0.91187918  0.32434716  0.07249283     0.11500
H420        H  0.93445884  0.28487135  0.06913396     0.13400
H421        H  0.93897224  0.27082602  0.01558714     0.10000
H422        H  0.93883180  0.27217257  0.95450276     0.12100
H423        H  0.91206558  0.33048209  0.95612433     0.08700
H424        H  0.91224948  0.32927850  0.01760406     0.11400
C425        C  0.94075585  0.35545047  0.68425891    -0.03200
C426        C  0.92338139  0.36185618  0.66744268    -0.05800
C427        C  0.92010748  0.35710580  0.63376350    -0.20900
C428        C  0.93420171  0.34603859  0.61592056     0.24900
C429        C  0.95115266  0.33874331  0.63335146    -0.18400
C430        C  0.95434512  0.34340889  0.66722266    -0.08400
C431        C  0.93098862  0.34365498  0.57900073    -0.18700
C432        C  0.94529341  0.33816663  0.55729821    -0.23500
C433        C  0.94326507  0.33993685  0.51998376     0.26900
C434        C  0.95693642  0.32983106  0.49978541    -0.20200
C435        C  0.95767542  0.33347168  0.46504009    -0.09900
C436        C  0.94495417  0.34760961  0.44970229    -0.10400
C437        C  0.93042481  0.35679204  0.46959825    -0.03400
C438        C  0.92963793  0.35311405  0.50429941    -0.18500
H439        H  0.91251219  0.37094460  0.68017254     0.10600
H440        H  0.90682932  0.36277139  0.62124238     0.10700
H441        H  0.96219500  0.32972312  0.62108566     0.10300
H442        H  0.96788074  0.33833199  0.67963371     0.11500
H443        H  0.91650274  0.34804105  0.56915314     0.11500
H444        H  0.95967525  0.33326082  0.56678050     0.13400
H445        H  0.96761423  0.31960646  0.51112625     0.10000
H446        H  0.96898211  0.32593614  0.45073622     0.12100
H447        H  0.92001864  0.36737932  0.45858060     0.08700
H448        H  0.91902463  0.36151043  0.51872808     0.11400
C449        C  0.13527615  0.28430982  0.30699933    -0.03200
C450        C  0.12944715  0.26505600  0.31660360    -0.05800
C451        C  0.10924399  0.26009826  0.31783227    -0.20900
C452        C  0.09462824  0.27446234  0.31048446     0.24900
C453        C  0.10044215  0.29368303  0.30089958    -0.18400
C454        C  0.12057036  0.29851130  0.29892305    -0.08400
C455        C  0.07333693  0.26916068  0.31134544    -0.18700
C456        C  0.05977348  0.28120311  0.32521776    -0.23500
C457        C  0.03809357  0.27786455  0.32248262     0.26900
C458        C  0.02560994  0.28442224  0.34824493    -0.20200
C459        C  0.00493690  0.28364332  0.34446710    -0.09900
C460        C  0.99641571  0.27678374  0.31443068    -0.10400
C461        C  0.00890757  0.26988284  0.28888416    -0.03400
C462        C  0.02957648  0.27025568  0.29297262    -0.18500
H463        H  0.14049132  0.25381403  0.32284858     0.10600
H464        H  0.10500369  0.24514634  0.32495867     0.10700
H465        H  0.08940033  0.30490138  0.29447058     0.10300
H466        H  0.12461518  0.31346022  0.29145161     0.11500
H467        H  0.06880644  0.25516318  0.30058561     0.11500
H468        H  0.06475270  0.29417344  0.33878252     0.13400
H469        H  0.03187751  0.29060568  0.37097248     0.10000
H470        H  0.99564729  0.28938678  0.36432500     0.12100
H471        H  0.00270646  0.26476547  0.26533994     0.08700
H472        H  0.03885395  0.26558623  0.27231744     0.11400
C473        C  0.99743977  0.34568129  0.38426272    -0.03200
C474        C  0.00480640  0.34555414  0.41731177    -0.05800
C475        C  0.02514755  0.34302842  0.42356343    -0.20900
C476        C  0.03855966  0.34065883  0.39689890     0.24900
C477        C  0.03096064  0.33977369  0.36376616    -0.18400
C478        C  0.01054949  0.34237176  0.35756500    -0.08400
C479        C  0.06023313  0.34194990  0.40455010    -0.18700
C480        C  0.07487725  0.33776151  0.38271214    -0.23500
C481        C  0.09599052  0.34295770  0.38946640     0.26900
C482        C  0.11131649  0.33167143  0.37521119    -0.20200
C483        C  0.13124160  0.33732757  0.37888773    -0.09900
C484        C  0.13609605  0.35464334  0.39623657    -0.10400
C485        C  0.12081706  0.36579935  0.41087576    -0.03400
C486        C  0.10098358  0.36001634  0.40761728    -0.18500
H487        H  0.99505034  0.34879445  0.43812249     0.10600
H488        H  0.03054892  0.34398010  0.44925154     0.10700
H489        H  0.04070933  0.33830903  0.34238690     0.10300
H490        H  0.00510985  0.34278313  0.33182444     0.11500
H491        H  0.06430745  0.34743761  0.42922474     0.11500
H492        H  0.07148537  0.33061423  0.35909364     0.13400
H493        H  0.10781845  0.31859443  0.36091052     0.10000
H494        H  0.14276642  0.32863987  0.36699245     0.12100
H495        H  0.12421204  0.37922669  0.42434676     0.08700
H496        H  0.08955932  0.36940695  0.41813950     0.11400
C497        C  0.99252493  0.28646979  0.83375931    -0.03200
C498        C  0.00072946  0.27774334  0.80502758    -0.05800
C499        C  0.02144310  0.27637768  0.80131953    -0.20900
C500        C  0.03424526  0.28386093  0.82609909     0.24900
C501        C  0.02595053  0.29169360  0.85553843    -0.18400
C502        C  0.00536945  0.29311130  0.85917754    -0.08400
C503        C  0.05616963  0.28336990  0.82109046    -0.18700
C504        C  0.06798665  0.29753928  0.83381227    -0.23500
C505        C  0.09012881  0.29775682  0.83285782     0.26900
C506        C  0.09969956  0.31411596  0.84697366    -0.20200
C507        C  0.12036350  0.31477038  0.84948758    -0.09900
C508        C  0.13212280  0.29906000  0.83787515    -0.10400
C509        C  0.12274123  0.28285925  0.82275975    -0.03400
C510        C  0.10188471  0.28212517  0.82041401    -0.18500
H511        H  0.99116839  0.27248636  0.78504601     0.10600
H512        H  0.02747470  0.27001099  0.77865042     0.10700
H513        H  0.03532564  0.29683529  0.87583663     0.10300
H514        H  0.99951619  0.29970990  0.88178752     0.11500
H515        H  0.06234382  0.27153484  0.80616438     0.11500
H516        H  0.06094764  0.30994202  0.84629688     0.13400
H517        H  0.09112206  0.32640021  0.85668338     0.10000
H518        H  0.12714083  0.32762852  0.86076928     0.12100
H519        H  0.13148884  0.27059143  0.81346109     0.08700
H520        H  0.09519157  0.26916966  0.80950065     0.11400
C521        C  0.20737015  0.31004546  0.19621229    -0.03200
C522        C  0.21455145  0.32778093  0.18185496    -0.05800
C523        C  0.21663239  0.32972221  0.14682312    -0.20900
C524        C  0.21141238  0.31405180  0.12564770     0.24900
C525        C  0.20507330  0.29606158  0.14030532    -0.18400
C526        C  0.20294102  0.29415706  0.17507627    -0.08400
C527        C  0.21278119  0.31659555  0.08844163    -0.18700
C528        C  0.20058362  0.30677983  0.06745068    -0.23500
C529        C  0.20149551  0.30737344  0.03004498     0.26900
C530        C  0.19089828  0.29285046  0.01258808    -0.20200
C531        C  0.19087318  0.29252490  0.97750665    -0.09900
C532        C  0.20134643  0.30684279  0.95882202    -0.10400
C533        C  0.21196018  0.32149313  0.97609484    -0.03400
C534        C  0.21207594  0.32177051  0.01143421    -0.18500
H535        H  0.21828289  0.34020567  0.19761526     0.10600
H536        H  0.22188730  0.34360874  0.13619617     0.10700
H537        H  0.20184517  0.28330669  0.12504170     0.10300
H538        H  0.19775539  0.28016917  0.18540870     0.11500
H539        H  0.22377436  0.32682412  0.07860581     0.11500
H540        H  0.18922223  0.29727998  0.07827086     0.13400
H541        H  0.18258064  0.28160785  0.02618179     0.10000
H542        H  0.18245880  0.28109517  0.96500259     0.12100
H543        H  0.22004889  0.33280487  0.96230023     0.08700
H544        H  0.22016099  0.33342664  0.02381053     0.11400
C545        C  0.99472952  0.35253446  0.75670565    -0.03200
C546        C  0.00063076  0.34039355  0.78401015    -0.05800
C547        C  0.02082328  0.33579826  0.78920528    -0.20900
C548        C  0.03536445  0.34290383  0.76680685     0.24900
C549        C  0.02916751  0.35421124  0.73845912    -0.18400
C550        C  0.00907041  0.35906993  0.73364307    -0.08400
C551        C  0.05686088  0.34076207  0.77585015    -0.18700
C552        C  0.07148974  0.34146575  0.75275553    -0.23500
C553        C  0.09296538  0.34450714  0.76080095     0.26900
C554        C  0.10702586  0.34136792  0.73535861    -0.20200
C555        C  0.12672611  0.34761904  0.73919530    -0.09900
C556        C  0.13278657  0.35733556  0.76843557    -0.10400
C557        C  0.11909432  0.35946085  0.79478441    -0.03400
C558        C  0.09938546  0.35312352  0.79106178    -0.18500
H559        H  0.98979415  0.33552636  0.80242286     0.10600
H560        H  0.02518952  0.32735716  0.81146816     0.10700
H561        H  0.03988694  0.36048827  0.72115806     0.10300
H562        H  0.00480748  0.36877405  0.71280150     0.11500
H563        H  0.06062905  0.33950297  0.80240394     0.11500
H564        H  0.06748373  0.34087761  0.72625345     0.13400
H565        H  0.10251931  0.33491942  0.71169964     0.10000
H566        H  0.13680442  0.34600559  0.71836799     0.12100
H567        H  0.12345946  0.36672756  0.81779901     0.08700
H568        H  0.08906111  0.35612026  0.81115497     0.11400
C569        C  0.19004072  0.35075501  0.46591590    -0.03200
C570        C  0.17498034  0.33981541  0.48184391    -0.05800
C571        C  0.17613152  0.33562482  0.51644578    -0.20900
C572        C  0.19228451  0.34236773  0.53569576     0.24900
C573        C  0.20822037  0.35167486  0.51903560    -0.18400
C574        C  0.20702595  0.35592932  0.48456093    -0.08400
C575        C  0.19121439  0.34086271  0.57309021    -0.18700
C576        C  0.20024808  0.35402722  0.59332246    -0.23500
C577        C  0.19649308  0.35615942  0.63006007     0.26900
C578        C  0.20667463  0.37116794  0.64706682    -0.20200
C579        C  0.20203804  0.37570389  0.68030184    -0.09900
C580        C  0.18700771  0.36535951  0.69755472    -0.10400
C581        C  0.17769579  0.34949321  0.68128942    -0.03400
C582        C  0.18225830  0.34498630  0.64790283    -0.18500
H583        H  0.16168583  0.33569665  0.46813777     0.10600
H584        H  0.16378662  0.32817030  0.52854659     0.10700
H585        H  0.22140339  0.35621058  0.53258328     0.10300
H586        H  0.21909364  0.36393858  0.47268880     0.11500
H587        H  0.18102750  0.33004623  0.58351382     0.11500
H588        H  0.20977187  0.36518957  0.58202091     0.13400
H589        H  0.21793735  0.37985337  0.63427897     0.10000
H590        H  0.21019245  0.38747800  0.69230451     0.12100
H591        H  0.16640975  0.34083402  0.69375305     0.08700
H592        H  0.17412525  0.33312533  0.63626643     0.11400
C593        C  0.94652191  0.39938452  0.35617831    -0.03200
C594        C  0.92747618  0.40743071  0.36229340    -0.05800
C595        C  0.92373364  0.42780025  0.35789268    -0.20900
C596        C  0.93887310  0.44055891  0.34692372     0.24900
C597        C  0.95718493  0.43228043  0.33739610    -0.18400
C598        C  0.96092563  0.41200933  0.34173916    -0.08400
C599        C  0.93571957  0.46245589  0.34701855    -0.18700
C600        C  0.95062698  0.47476301  0.35539546    -0.23500
C601        C  0.94850062  0.49649586  0.35997568     0.26900
C602        C  0.96149090  0.50552359  0.38266461    -0.20200
C603        C  0.96119660  0.52597444  0.38675947    -0.09900
C604        C  0.94820381  0.53826960  0.36774813    -0.10400
C605        C  0.93483344  0.52919562  0.34526018    -0.03400
C606        C  0.93495032  0.50845482  0.34149776    -0.18500
H607        H  0.91575516  0.39808813  0.37218673     0.10600
H608        H  0.90929802  0.43372080  0.36460344     0.10700
H609        H  0.96881232  0.44153554  0.32697423     0.10300
H610        H  0.97523642  0.40659724  0.33377133     0.11500
H611        H  0.92072892  0.46827745  0.34361843     0.11500
H612        H  0.96501553  0.46836572  0.36212964     0.13400
H613        H  0.97206922  0.49669605  0.39723678     0.10000
H614        H  0.97162709  0.53236637  0.40440681     0.12100
H615        H  0.92450677  0.53789446  0.33016355     0.08700
H616        H  0.92490933  0.50189836  0.32344018     0.11400
C617        C  0.94225695  0.54922462  0.76954306    -0.03200
C618        C  0.93010128  0.54218514  0.79598392    -0.05800
C619        C  0.92754688  0.52166969  0.80147670    -0.20900
C620        C  0.93726912  0.50783833  0.78106499     0.24900
C621        C  0.94877660  0.51495458  0.75406884    -0.18400
C622        C  0.95123363  0.53520000  0.74852326    -0.08400
C623        C  0.93488098  0.48603354  0.78683233    -0.18700
C624        C  0.94969672  0.47337538  0.77906150    -0.23500
C625        C  0.94784229  0.45156015  0.77572702     0.26900
C626        C  0.96003687  0.44259376  0.75187358    -0.20200
C627        C  0.95978383  0.42221159  0.74752723    -0.09900
C628        C  0.94789338  0.40980946  0.76780865    -0.10400
C629        C  0.93530107  0.41876846  0.79161112    -0.03400
C630        C  0.93514894  0.43955690  0.79532660    -0.18500
H631        H  0.92247462  0.55225522  0.81243468     0.10600
H632        H  0.91820115  0.51659402  0.82196006     0.10700
H633        H  0.95570672  0.50489889  0.73662443     0.10300
H634        H  0.96030683  0.54000627  0.72748778     0.11500
H635        H  0.92069236  0.48044680  0.79570008     0.11500
H636        H  0.96389791  0.47953563  0.77135328     0.13400
H637        H  0.96981386  0.45146958  0.73619913     0.10000
H638        H  0.96934663  0.41597613  0.72847945     0.12100
H639        H  0.92557025  0.40994703  0.80727690     0.08700
H640        H  0.92556229  0.44611094  0.81397961     0.11400
C641        C  0.93907428  0.60310624  0.68157879    -0.03200
C642        C  0.92142923  0.59755271  0.66514955    -0.05800
C643        C  0.91895603  0.60104058  0.63062781    -0.20900
C644        C  0.93410885  0.60998852  0.61168850     0.24900
C645        C  0.95108983  0.61704293  0.62867241    -0.18400
C646        C  0.95352977  0.61359754  0.66333851    -0.08400
C647        C  0.93210232  0.61028305  0.57431339    -0.18700
C648        C  0.94782635  0.61083825  0.55338189    -0.23500
C649        C  0.94659917  0.60677604  0.51668011     0.26900
C650        C  0.96269710  0.61223120  0.49619159    -0.20200
C651        C  0.96352753  0.60636832  0.46259688    -0.09900
C652        C  0.94845002  0.59461959  0.44894869    -0.10400
C653        C  0.93198580  0.58969536  0.46895640    -0.03400
C654        C  0.93100782  0.59572595  0.50245034    -0.18500
H655        H  0.90984424  0.58980251  0.67878185     0.10600
H656        H  0.90557938  0.59576359  0.61837998     0.10700
H657        H  0.96276993  0.62474000  0.61530043     0.10300
H658        H  0.96723656  0.61811989  0.67540961     0.11500
H659        H  0.91729964  0.60808670  0.56402761     0.11500
H660        H  0.96262754  0.61311771  0.56358404     0.13400
H661        H  0.97498958  0.62056323  0.50651985     0.10000
H662        H  0.97643921  0.61019059  0.44789263     0.12100
H663        H  0.92009419  0.58071351  0.45889593     0.08700
H664        H  0.91852769  0.59076899  0.51734939     0.11400
C665        C  0.91884040  0.65104158  0.94413045    -0.03200
C666        C  0.91190998  0.66744864  0.96199701    -0.05800
C667        C  0.90877219  0.66603887  0.99664394    -0.20900
C668        C  0.91274337  0.64830668  0.01448798     0.24900
C669        C  0.91939022  0.63168941  0.99646521    -0.18400
C670        C  0.92231942  0.63306374  0.96157513    -0.08400
C671        C  0.91052190  0.64849043  0.05179700    -0.18700
C672        C  0.91581886  0.63360925  0.07309765    -0.23500
C673        C  0.91565837  0.63594185  0.11026793     0.26900
C674        C  0.91275293  0.61926659  0.13121488    -0.20200
C675        C  0.91374027  0.62090981  0.16630965    -0.09900
C676        C  0.91799728  0.63922753  0.18106383    -0.10400
C677        C  0.92074713  0.65593879  0.16010152    -0.03400
C678        C  0.91964791  0.65432550  0.12513139    -0.18500
H679        H  0.90899078  0.68146937  0.94918865     0.10600
H680        H  0.90360268  0.67906902  0.00969537     0.10700
H681        H  0.92254997  0.61766653  0.00891053     0.10300
H682        H  0.92771455  0.62018943  0.94836273     0.11500
H683        H  0.90476793  0.66210058  0.06242156     0.11500
H684        H  0.92061262  0.61940165  0.06359670     0.13400
H685        H  0.90985843  0.60491566  0.12037592     0.10000
H686        H  0.91166419  0.60775656  0.18184693     0.12100
H687        H  0.92422540  0.67022280  0.17069951     0.08700
H688        H  0.92265496  0.66737846  0.10985657     0.11400
C689        C  0.18697537  0.40815103  0.38529383    -0.03200
C690        C  0.17959664  0.42043348  0.41075132    -0.05800
C691        C  0.18175815  0.44086414  0.40897899    -0.20900
C692        C  0.19086049  0.44995377  0.38124109     0.24900
C693        C  0.19811016  0.43797947  0.35518891    -0.18400
C694        C  0.19629911  0.41718598  0.35729749    -0.08400
C695        C  0.19199136  0.47192286  0.38140365    -0.18700
C696        C  0.19341380  0.48385798  0.35406332    -0.23500
C697        C  0.19012905  0.50560494  0.35699524     0.26900
C698        C  0.20088176  0.51911289  0.33709167    -0.20200
C699        C  0.19782286  0.53963498  0.34020147    -0.09900
C700        C  0.18366402  0.54700301  0.36304013    -0.10400
C701        C  0.17282475  0.53325674  0.38251680    -0.03400
C702        C  0.17583474  0.51294910  0.37934579    -0.18500
H703        H  0.17205257  0.41409853  0.43239246     0.10600
H704        H  0.17590319  0.44967238  0.42930728     0.10700
H705        H  0.20533516  0.44454748  0.33348476     0.10300
H706        H  0.20198071  0.40845140  0.33688557     0.11500
H707        H  0.18991209  0.47879619  0.40573078     0.11500
H708        H  0.19621842  0.47777616  0.32938944     0.13400
H709        H  0.21187135  0.51378263  0.31949747     0.10000
H710        H  0.20670185  0.54943381  0.32480433     0.12100
H711        H  0.16177772  0.53832477  0.40025142     0.08700
H712        H  0.16671912  0.50299210  0.39423170     0.11400
C713        C  0.13090332  0.60052049  0.36516028    -0.03200
C714        C  0.12326952  0.61539263  0.38597691    -0.05800
C715        C  0.10305012  0.62052020  0.38475558    -0.20900
C716        C  0.09013109  0.61150555  0.36178270     0.24900
C717        C  0.09802263  0.59761800  0.33930966    -0.18400
C718        C  0.11813107  0.59221490  0.34101035    -0.08400
C719        C  0.06830847  0.61485591  0.36488351    -0.18700
C720        C  0.05523397  0.61161874  0.33969256    -0.23500
C721        C  0.03351972  0.60880966  0.34520406     0.26900
C722        C  0.02304004  0.59704872  0.32236001    -0.20200
C723        C  0.00377933  0.59066802  0.32957590    -0.09900
C724        C  0.99443985  0.59612361  0.35964328    -0.10400
C725        C  0.00406434  0.60955723  0.38079885    -0.03400
C726        C  0.02348700  0.61580511  0.37378024    -0.18500
H727        H  0.13263263  0.62268343  0.40405175     0.10600
H728        H  0.09738214  0.63126761  0.40234647     0.10700
H729        H  0.08857655  0.59003304  0.32157209     0.10300
H730        H  0.12355271  0.58120267  0.32372174     0.11500
H731        H  0.06294090  0.61840942  0.38978076     0.11500
H732        H  0.06086090  0.60842594  0.31477212     0.13400
H733        H  0.03017622  0.59183102  0.29973333     0.10000
H734        H  0.99640286  0.58091865  0.31209022     0.12100
H735        H  0.99703407  0.61448441  0.40357299     0.08700
H736        H  0.03069273  0.62562723  0.39126960     0.11400
C737        C  0.99330073  0.65286532  0.28740441    -0.03200
C738        C  0.00518926  0.63886517  0.27094221    -0.05800
C739        C  0.02589221  0.64039297  0.27145792    -0.20900
C740        C  0.03526615  0.65579599  0.28870314     0.24900
C741        C  0.02340725  0.66979530  0.30540337    -0.18400
C742        C  0.00260569  0.66831025  0.30475600    -0.08400
C743        C  0.05728506  0.65726152  0.28666392    -0.18700
C744        C  0.06879893  0.66766715  0.30790080    -0.23500
C745        C  0.09073800  0.66890420  0.30359815     0.26900
C746        C  0.10315588  0.67092324  0.33191303    -0.20200
C747        C  0.12391617  0.67084591  0.32840493    -0.09900
C748        C  0.13255196  0.66879643  0.29646545    -0.10400
C749        C  0.12010340  0.66780980  0.26805290    -0.03400
C750        C  0.09944983  0.66804625  0.27151285    -0.18500
H751        H  0.99849653  0.62668911  0.25756089     0.10600
H752        H  0.03464166  0.62944285  0.25830900     0.10700
H753        H  0.03003840  0.68215120  0.31829739     0.10300
H754        H  0.99380735  0.67928734  0.31771282     0.11500
H755        H  0.06440284  0.64877478  0.26702557     0.11500
H756        H  0.06228226  0.67460165  0.32973956     0.13400
H757        H  0.09680549  0.67186611  0.35685254     0.10000
H758        H  0.13318618  0.67156257  0.35075945     0.12100
H759        H  0.12635287  0.66648695  0.24309827     0.08700
H760        H  0.09035836  0.66738787  0.24897376     0.11400
C761        C  0.18167005  0.55335510  0.78120100    -0.03200
C762        C  0.20012645  0.54488570  0.77258529    -0.05800
C763        C  0.20392765  0.52469506  0.77816389    -0.20900
C764        C  0.18972396  0.51247835  0.79366228     0.24900
C765        C  0.17203466  0.52125011  0.80526804    -0.18400
C766        C  0.16812130  0.54141559  0.79928617    -0.08400
C767        C  0.19301172  0.49057734  0.79369217    -0.18700
C768        C  0.18266695  0.47747720  0.81264087    -0.23500
C769        C  0.18315205  0.45556538  0.80766679     0.26900
C770        C  0.16759520  0.44415794  0.82102969    -0.20200
C771        C  0.16590189  0.42401684  0.81367266    -0.09900
C772        C  0.17963862  0.41469317  0.79227284    -0.10400
C773        C  0.19636963  0.42567263  0.78189209    -0.03400
C774        C  0.19802050  0.44586751  0.78911954    -0.18500
H775        H  0.21121014  0.55369327  0.75959699     0.10600
H776        H  0.21778245  0.51844912  0.76922348     0.10700
H777        H  0.16062178  0.51253015  0.81741578     0.10300
H778        H  0.15421320  0.54720874  0.80841622     0.11500
H779        H  0.20366254  0.48518125  0.77556431     0.11500
H780        H  0.17219947  0.48296423  0.83102133     0.13400
H781        H  0.15628359  0.45099618  0.83642144     0.10000
H782        H  0.15365539  0.41595879  0.82471210     0.12100
H783        H  0.20796136  0.41878945  0.76720714     0.08700
H784        H  0.21089872  0.45369948  0.77981393     0.11400
C785        C  0.99430478  0.60063977  0.74655576    -0.03200
C786        C  0.00684967  0.58959680  0.72577722    -0.05800
C787        C  0.02691472  0.59452999  0.72250478    -0.20900
C788        C  0.03506830  0.61028837  0.74060329     0.24900
C789        C  0.02242131  0.62162746  0.76109406    -0.18400
C790        C  0.00211443  0.61693123  0.76374966    -0.08400
C791        C  0.05684897  0.61394222  0.73767313    -0.18700
C792        C  0.06821285  0.62085804  0.76295964    -0.23500
C793        C  0.09033774  0.61926664  0.76239679     0.26900
C794        C  0.10038190  0.61371966  0.79217149    -0.20200
C795        C  0.12056675  0.60856936  0.79152776    -0.09900
C796        C  0.13126010  0.60935999  0.76123643    -0.10400
C797        C  0.12172397  0.61666241  0.73202500    -0.03400
C798        C  0.10136953  0.62146544  0.73250459    -0.18500
H799        H  0.00108930  0.57704615  0.71214900     0.10600
H800        H  0.03625680  0.58561083  0.70645787     0.10700
H801        H  0.02814177  0.63409697  0.77493389     0.10300
H802        H  0.99264393  0.62563543  0.77991556     0.11500
H803        H  0.06417035  0.60818256  0.71551072     0.11500
H804        H  0.06124372  0.62476239  0.78657894     0.13400
H805        H  0.09231325  0.61214592  0.81559196     0.10000
H806        H  0.12767812  0.60319292  0.81448531     0.12100
H807        H  0.12963736  0.61742385  0.70841664     0.08700
H808        H  0.09414107  0.62622884  0.70929993     0.11400
C809        C  0.17963110  0.60169577  0.44643867    -0.03200
C810        C  0.16246880  0.60894762  0.46194867    -0.05800
C811        C  0.16257695  0.61341229  0.49619674    -0.20900
C812        C  0.17983135  0.61061663  0.51590483     0.24900
C813        C  0.19737153  0.60416078  0.49987248    -0.18400
C814        C  0.19716817  0.59959972  0.46556362    -0.08400
C815        C  0.17815217  0.61319169  0.55311419    -0.18700
C816        C  0.19256690  0.60837738  0.57560511    -0.23500
C817        C  0.18925181  0.60712168  0.61263491     0.26900
C818        C  0.20158760  0.59437366  0.63169939    -0.20200
C819        C  0.19816290  0.59117541  0.66594483    -0.09900
C820        C  0.18232781  0.60073513  0.68222702    -0.10400
C821        C  0.17066422  0.61443885  0.66370932    -0.03400
C822        C  0.17402397  0.61757498  0.62917656    -0.18500
H823        H  0.14861503  0.60998397  0.44820762     0.10600
H824        H  0.14882350  0.61826852  0.50764226     0.10700
H825        H  0.21118899  0.60205296  0.51348181     0.10300
H826        H  0.21060571  0.59396652  0.45408043     0.11500
H827        H  0.16365439  0.61757071  0.56241820     0.11500
H828        H  0.20684899  0.60310740  0.56688153     0.13400
H829        H  0.21361118  0.58635829  0.61983793     0.10000
H830        H  0.20789909  0.58101628  0.67963285     0.12100
H831        H  0.15858930  0.62229435  0.67556871     0.08700
H832        H  0.16461934  0.62807828  0.61563941     0.11400
C833        C  0.13461576  0.67508193  0.82783713    -0.03200
C834        C  0.12596293  0.68844551  0.80444540    -0.05800
C835        C  0.10523012  0.69077734  0.80270100    -0.20900
C836        C  0.09281125  0.67997765  0.82451405     0.24900
C837        C  0.10152980  0.66644330  0.84761493    -0.18400
C838        C  0.12215634  0.66410413  0.84931911    -0.08400
C839        C  0.07082478  0.68219158  0.82149996    -0.18700
C840        C  0.05860449  0.67895106  0.84780566    -0.23500
C841        C  0.03649102  0.67830421  0.84567989     0.26900
C842        C  0.02627503  0.66965437  0.87284803    -0.20200
C843        C  0.00568137  0.66728043  0.87163423    -0.09900
C844        C  0.99469585  0.67370438  0.84330114    -0.10400
C845        C  0.00470014  0.68308344  0.81653552    -0.03400
C846        C  0.02543037  0.68536598  0.81764649    -0.18500
H847        H  0.13518936  0.69693210  0.78729529     0.10600
H848        H  0.09886892  0.70105661  0.78432441     0.10700
H849        H  0.09248315  0.65719366  0.86384097     0.10300
H850        H  0.12833327  0.65342587  0.86720896     0.11500
H851        H  0.06481897  0.68622980  0.79694179     0.11500
H852        H  0.06515471  0.67560960  0.87231519     0.13400
H853        H  0.03433193  0.66419086  0.89484745     0.10000
H854        H  0.99839677  0.66007305  0.89273880     0.12100
H855        H  0.99657081  0.68822672  0.79441662     0.08700
H856        H  0.03258461  0.69253548  0.79646884     0.11400
C857        C  0.20634442  0.66115064  0.94023461    -0.03200
C858        C  0.19836221  0.67698892  0.95843884    -0.05800
C859        C  0.19864603  0.67668586  0.99359458    -0.20900
C860        C  0.20679728  0.66051229  0.01167958     0.24900
C861        C  0.21546489  0.64488436  0.99352454    -0.18400
C862        C  0.21520099  0.64521458  0.95811866    -0.08400
C863        C  0.20558330  0.66081358  0.04920727    -0.18700
C864        C  0.20832070  0.64494602  0.06990168    -0.23500
C865        C  0.20557211  0.64598062  0.10710965     0.26900
C866        C  0.21642769  0.63306269  0.12850930    -0.20200
C867        C  0.21435854  0.63395329  0.16362083    -0.09900
C868        C  0.20128167  0.64774201  0.17801336    -0.10400
C869        C  0.18992386  0.66017717  0.15653540    -0.03400
C870        C  0.19194713  0.65926019  0.12155602    -0.18500
H871        H  0.19152204  0.68955800  0.94550316     0.10600
H872        H  0.19203268  0.68902004  0.00674161     0.10700
H873        H  0.22241647  0.63238207  0.00633531     0.10300
H874        H  0.22165902  0.63288652  0.94477037     0.11500
H875        H  0.20159875  0.67490997  0.06023812     0.11500
H876        H  0.21287912  0.63081579  0.05974872     0.13400
H877        H  0.22680325  0.62249705  0.11804743     0.10000
H878        H  0.22323361  0.62410556  0.17949824     0.12100
H879        H  0.17942967  0.67069636  0.16680020     0.08700
H880        H  0.18265665  0.66885388  0.10596309     0.11400
C881        C  0.34117614  0.79934533  0.32446159    -0.03200
C882        C  0.32173767  0.80507785  0.33308458    -0.05800
C883        C  0.30644394  0.79105774  0.33530440    -0.20900
C884        C  0.31003667  0.77089629  0.32879761     0.24900
C885        C  0.32970635  0.76509317  0.32111565    -0.18400
C886        C  0.34503753  0.77913735  0.31910496    -0.08400
C887        C  0.29266761  0.75690854  0.32922969    -0.18700
C888        C  0.29370789  0.73726253  0.32276291    -0.23500
C889        C  0.27619640  0.72354424  0.32090895     0.26900
C890        C  0.27987892  0.70308962  0.31776126    -0.20200
C891        C  0.26423699  0.68965824  0.31352229    -0.09900
C892        C  0.24438726  0.69630259  0.31217019    -0.10400
C893        C  0.24056011  0.71665564  0.31615721    -0.03400
C894        C  0.25621501  0.73012482  0.32042645    -0.18500
H895        H  0.31822252  0.82051855  0.33743664     0.10600
H896        H  0.29158551  0.79611133  0.34143656     0.10700
H897        H  0.33348507  0.74986937  0.31596521     0.10300
H898        H  0.35983151  0.77423361  0.31229422     0.11500
H899        H  0.27831491  0.76342910  0.33479884     0.11500
H900        H  0.30809213  0.73056689  0.31816404     0.13400
H901        H  0.29501347  0.69745998  0.31800859     0.10000
H902        H  0.26774294  0.67409001  0.31056567     0.12100
H903        H  0.22542859  0.72226857  0.31524950     0.08700
H904        H  0.25244146  0.74564703  0.32235334     0.11400
C905        C  0.34743041  0.80098551  0.81260690    -0.03200
C906        C  0.35448654  0.78141327  0.81019111    -0.05800
C907        C  0.34122807  0.76564519  0.80611968    -0.20900
C908        C  0.32057548  0.76897840  0.80407817     0.24900
C909        C  0.31352235  0.78867100  0.80595902    -0.18400
C910        C  0.32680455  0.80444179  0.81010204    -0.08400
C911        C  0.30703537  0.75143720  0.80231697    -0.18700
C912        C  0.28766847  0.75245168  0.79296729    -0.23500
C913        C  0.27341232  0.73542778  0.79401592     0.26900
C914        C  0.25303037  0.73963721  0.78980729    -0.20200
C915        C  0.23876123  0.72470974  0.79301666    -0.09900
C916        C  0.24444131  0.70503993  0.80042532    -0.10400
C917        C  0.26486017  0.70051929  0.80309171    -0.03400
C918        C  0.27921178  0.71550856  0.79987920    -0.18500
H919        H  0.37025633  0.77819565  0.81236222     0.10600
H920        H  0.34714681  0.75069462  0.80506030     0.10700
H921        H  0.29777915  0.79203109  0.80550918     0.10300
H922        H  0.32085200  0.81932154  0.81229720     0.11500
H923        H  0.31347613  0.73723511  0.80957292     0.11500
H924        H  0.28152569  0.76667741  0.78501850     0.13400
H925        H  0.24801908  0.75471445  0.78495979     0.10000
H926        H  0.22317877  0.72872760  0.79067016     0.12100
H927        H  0.26973441  0.68547540  0.80858637     0.08700
H928        H  0.29468958  0.71132171  0.80245667     0.11400
C929        C  0.39134258  0.83292894  0.95266529    -0.03200
C930        C  0.37363884  0.82856898  0.96980078    -0.05800
C931        C  0.37360421  0.82587395  0.00474226    -0.20900
C932        C  0.39120009  0.82764230  0.02372118     0.24900
C933        C  0.40914357  0.83130664  0.00646442    -0.18400
C934        C  0.40918868  0.83386340  0.97125341    -0.08400
C935        C  0.38964759  0.82598689  0.06121852    -0.18700
C936        C  0.40389782  0.83127639  0.08345765    -0.23500
C937        C  0.40062636  0.83148253  0.12068992     0.26900
C938        C  0.41707928  0.83028128  0.14272393    -0.20200
C939        C  0.41455539  0.83157065  0.17771958    -0.09900
C940        C  0.39551257  0.83441292  0.19141033    -0.10400
C941        C  0.37907095  0.83549810  0.16940493    -0.03400
C942        C  0.38156079  0.83410655  0.13456828    -0.18500
H943        H  0.35965219  0.82756705  0.95623226     0.10600
H944        H  0.35958076  0.82289408  0.01711141     0.10700
H945        H  0.42314462  0.83235741  0.01983019     0.10300
H946        H  0.42309005  0.83708803  0.95869519     0.11500
H947        H  0.37552648  0.82074541  0.07090905     0.11500
H948        H  0.41837262  0.83592154  0.07450687     0.13400
H949        H  0.43195209  0.82847524  0.13280279     0.10000
H950        H  0.42754426  0.83079496  0.19398226     0.12100
H951        H  0.36421443  0.83781005  0.17908483     0.08700
H952        H  0.36852495  0.83581246  0.11866863     0.11400
C953        C  0.43962861  0.85586489  0.45769160    -0.03200
C954        C  0.44339422  0.83848766  0.47663835    -0.05800
C955        C  0.43930779  0.83769976  0.51106159    -0.20900
C956        C  0.43166950  0.85434213  0.52749784     0.24900
C957        C  0.42672771  0.87138101  0.50814439    -0.18400
C958        C  0.43063956  0.87208603  0.47348400    -0.08400
C959        C  0.43025798  0.85344381  0.56488905    -0.18700
C960        C  0.43115594  0.86950464  0.58464425    -0.23500
C961        C  0.43395579  0.86818479  0.62184455     0.26900
C962        C  0.42823334  0.88430105  0.64167037    -0.20200
C963        C  0.43258778  0.88445116  0.67620823    -0.09900
C964        C  0.44312256  0.86864123  0.69142203    -0.10400
C965        C  0.44850541  0.85233440  0.67182444    -0.03400
C966        C  0.44397045  0.85206713  0.63744308    -0.18500
H967        H  0.45012642  0.82569321  0.46499647     0.10600
H968        H  0.44303794  0.82431356  0.52521373     0.10700
H969        H  0.42023861  0.88430413  0.51966625     0.10300
H970        H  0.42763868  0.88568206  0.45945051     0.11500
H971        H  0.43028414  0.83879276  0.57658264     0.11500
H972        H  0.43089415  0.88424616  0.57333761     0.13400
H973        H  0.42076180  0.89700986  0.63023509     0.10000
H974        H  0.42857350  0.89735470  0.69064751     0.12100
H975        H  0.45668822  0.83997878  0.68297442     0.08700
H976        H  0.44921967  0.83963834  0.62300699     0.11400
C977        C  0.33992210  0.15381586  0.31778128    -0.03200
C978        C  0.32004592  0.14797051  0.32208785    -0.05800
C979        C  0.30492144  0.16214793  0.32543648    -0.20900
C980        C  0.30922947  0.18252844  0.32478052     0.24900
C981        C  0.32924594  0.18835825  0.32126724    -0.18400
C982        C  0.34437987  0.17414727  0.31787014    -0.08400
C983        C  0.29225848  0.19694964  0.32581763    -0.18700
C984        C  0.29410605  0.21660407  0.33124053    -0.23500
C985        C  0.27712147  0.23106960  0.33041545     0.26900
C986        C  0.28136129  0.25145129  0.32818116    -0.20200
C987        C  0.26601913  0.26559674  0.32619057    -0.09900
C988        C  0.24599885  0.25970581  0.32658791    -0.10400
C989        C  0.24169543  0.23939036  0.32976751    -0.03400
C990        C  0.25701483  0.22524672  0.33178634    -0.18500
H991        H  0.31608105  0.13242560  0.32197267     0.10600
H992        H  0.28969824  0.15714673  0.32798826     0.10700
H993        H  0.33336400  0.20380567  0.31991826     0.10300
H994        H  0.35953602  0.17912150  0.31435358     0.11500
H995        H  0.27762169  0.19085252  0.32128062     0.11500
H996        H  0.30874915  0.22270484  0.33576224     0.13400
H997        H  0.29664629  0.25646251  0.32734109     0.10000
H998        H  0.26984470  0.28112729  0.32371428     0.12100
H999        H  0.22641596  0.23435968  0.33025577     0.08700
H1000       H  0.25286069  0.20986332  0.33453508     0.11400
C1001       C  0.37071093  0.90761342  0.29937021    -0.03200
C1002       C  0.36725471  0.91708361  0.33003710    -0.05800
C1003       C  0.36485628  0.93767357  0.33098070    -0.20900
C1004       C  0.36571346  0.94925785  0.30130987     0.24900
C1005       C  0.36880051  0.93960943  0.27046962    -0.18400
C1006       C  0.37131868  0.91905031  0.26961580    -0.08400
C1007       C  0.36454573  0.97126106  0.30419625    -0.18700
C1008       C  0.36387339  0.98395592  0.27764941    -0.23500
C1009       C  0.36525548  0.00585445  0.28044082     0.26900
C1010       C  0.37126641  0.01674464  0.25191141    -0.20200
C1011       C  0.37383253  0.03721427  0.25338085    -0.09900
C1012       C  0.37022000  0.04731465  0.28338148    -0.10400
C1013       C  0.36351553  0.03662738  0.31169250    -0.03400
C1014       C  0.36103997  0.01606639  0.31029157    -0.18500
H1015       H  0.36694291  0.90863555  0.35344779     0.10600
H1016       H  0.36266057  0.94461195  0.35511548     0.10700
H1017       H  0.36989598  0.94765026  0.24687213     0.10300
H1018       H  0.37404047  0.91211772  0.24563384     0.11500
H1019       H  0.36521135  0.97711392  0.32945657     0.11500
H1020       H  0.36341364  0.97830639  0.25230758     0.13400
H1021       H  0.37445465  0.00931563  0.22853244     0.10000
H1022       H  0.37890681  0.04509972  0.23109488     0.12100
H1023       H  0.36054847  0.04409997  0.33510298     0.08700
H1024       H  0.35578994  0.00837559  0.33257154     0.11400
C1025       C  0.44993614  0.04779060  0.38310661    -0.03200
C1026       C  0.46362698  0.03713325  0.40321832    -0.05800
C1027       C  0.46126851  0.01686165  0.40915793    -0.20900
C1028       C  0.44536884  0.00652562  0.39470463     0.24900
C1029       C  0.43134113  0.01720590  0.37491591    -0.18400
C1030       C  0.43352434  0.03776985  0.36948181    -0.08400
C1031       C  0.44447429  0.98471750  0.40124910    -0.18700
C1032       C  0.43559947  0.97144322  0.38102022    -0.23500
C1033       C  0.43862596  0.94953555  0.38532437     0.26900
C1034       C  0.42479361  0.93627315  0.37146459    -0.20200
C1035       C  0.42825749  0.91568218  0.37278357    -0.09900
C1036       C  0.44584154  0.90803928  0.38735400    -0.10400
C1037       C  0.45941985  0.92123455  0.40181763    -0.03400
C1038       C  0.45594448  0.94165098  0.40073095    -0.18500
H1039       H  0.47621192  0.04455470  0.41452568     0.10600
H1040       H  0.47221619  0.00911629  0.42468003     0.10700
H1041       H  0.41867140  0.00982630  0.36389661     0.10300
H1042       H  0.42269571  0.04574411  0.35406948     0.11500
H1043       H  0.45289844  0.97928973  0.42291387     0.11500
H1044       H  0.42665873  0.97661613  0.35976358     0.13400
H1045       H  0.41143971  0.94187931  0.35911566     0.10000
H1046       H  0.41762085  0.90582637  0.36122773     0.12100
H1047       H  0.47304907  0.91575206  0.41342904     0.08700
H1048       H  0.46738441  0.95114409  0.41075240     0.11400
C1049       C  0.33798259  0.15942879  0.80865732    -0.03200
C1050       C  0.31792872  0.15403285  0.80493415    -0.05800
C1051       C  0.30306350  0.16851309  0.80101260    -0.20900
C1052       C  0.30775031  0.18880113  0.80095687     0.24900
C1053       C  0.32795416  0.19421732  0.80352010    -0.18400
C1054       C  0.34286355  0.17967406  0.80739176    -0.08400
C1055       C  0.29095685  0.20347386  0.79911285    -0.18700
C1056       C  0.29249000  0.22288752  0.80668149    -0.23500
C1057       C  0.27509620  0.23675942  0.80903515     0.26900
C1058       C  0.27860416  0.25729450  0.80897749    -0.20200
C1059       C  0.26304228  0.27081648  0.81417834    -0.09900
C1060       C  0.24353782  0.26413636  0.81974834    -0.10400
C1061       C  0.23989279  0.24363942  0.81914742    -0.03400
C1062       C  0.25544868  0.23010539  0.81397872    -0.18500
H1063       H  0.31363188  0.13857817  0.80577232     0.10600
H1064       H  0.28772024  0.16380739  0.79888953     0.10700
H1065       H  0.33243791  0.20957257  0.80274902     0.10300
H1066       H  0.35819358  0.18430824  0.81004981     0.11500
H1067       H  0.27646156  0.19761105  0.79264600     0.11500
H1068       H  0.30695580  0.22901269  0.81251404     0.13400
H1069       H  0.29353907  0.26290530  0.80547603     0.10000
H1070       H  0.26637849  0.28650478  0.81456068     0.12100
H1071       H  0.22506912  0.23799205  0.82364038     0.08700
H1072       H  0.25201054  0.21447941  0.81523448     0.11400
C1073       C  0.37226092  0.91091658  0.84921797    -0.03200
C1074       C  0.37544585  0.92132807  0.87906952    -0.05800
C1075       C  0.37495080  0.94199991  0.87891993    -0.20900
C1076       C  0.37125583  0.95274677  0.84898692     0.24900
C1077       C  0.36753062  0.94232646  0.81915606    -0.18400
C1078       C  0.36796373  0.92156570  0.81934693    -0.08400
C1079       C  0.37286279  0.97466158  0.84986152    -0.18700
C1080       C  0.36525321  0.98716609  0.82630748    -0.23500
C1081       C  0.36768875  0.00896874  0.82859241     0.26900
C1082       C  0.35300280  0.02167510  0.81495404    -0.20200
C1083       C  0.35484820  0.04227856  0.81752499    -0.09900
C1084       C  0.37147311  0.05046686  0.83370474    -0.10400
C1085       C  0.38635248  0.03774825  0.84664458    -0.03400
C1086       C  0.38458353  0.01725726  0.84387592    -0.18500
H1087       H  0.37885885  0.91349259  0.90242915     0.10600
H1088       H  0.37790993  0.94964525  0.90221049     0.10700
H1089       H  0.36512081  0.95005016  0.79540823     0.10300
H1090       H  0.36583290  0.91388265  0.79585220     0.11500
H1091       H  0.38022279  0.98078690  0.87176306     0.11500
H1092       H  0.35619017  0.98152853  0.80591820     0.13400
H1093       H  0.33998162  0.01563775  0.80267983     0.10000
H1094       H  0.34327190  0.05177992  0.80699078     0.12100
H1095       H  0.39958016  0.04365329  0.85846796     0.08700
H1096       H  0.39663134  0.00798072  0.85333322     0.11400
C1097       C  0.38616375  0.12451873  0.94497220    -0.03200
C1098       C  0.36826149  0.12608335  0.96273018    -0.05800
C1099       C  0.36835753  0.12822743  0.99754530    -0.20900
C1100       C  0.38632129  0.12865736  0.01570450     0.24900
C1101       C  0.40439104  0.12758450  0.99787247    -0.18400
C1102       C  0.40427348  0.12561473  0.96272997    -0.08400
C1103       C  0.38499752  0.12944435  0.05305117    -0.18700
C1104       C  0.40036717  0.12720131  0.07472993    -0.23500
C1105       C  0.39725155  0.12561812  0.11169678     0.26900
C1106       C  0.41214223  0.13204419  0.13388688    -0.20200
C1107       C  0.40970975  0.13006441  0.16880288    -0.09900
C1108       C  0.39240489  0.12140295  0.18207219    -0.10400
C1109       C  0.37758267  0.11487876  0.15982866    -0.03400
C1110       C  0.37999702  0.11686009  0.12508749    -0.18500
H1111       H  0.35406731  0.12546989  0.94970955     0.10600
H1112       H  0.35422102  0.12910548  0.01044718     0.10700
H1113       H  0.41860687  0.12807232  0.01067244     0.10300
H1114       H  0.41829999  0.12449551  0.94957054     0.11500
H1115       H  0.37017064  0.13130559  0.06333885     0.11500
H1116       H  0.41552505  0.12633967  0.06568763     0.13400
H1117       H  0.42565951  0.13861687  0.12417154     0.10000
H1118       H  0.42144008  0.13510127  0.18536928     0.12100
H1119       H  0.36420946  0.10787907  0.16925137     0.08700
H1120       H  0.36853657  0.11099947  0.10883073     0.11400
C1121       C  0.44184466  0.05583312  0.74456919    -0.03200
C1122       C  0.45076858  0.04511931  0.71878204    -0.05800
C1123       C  0.44719137  0.02487525  0.71566310    -0.20900
C1124       C  0.43492656  0.01472974  0.73865905     0.24900
C1125       C  0.42525409  0.02570150  0.76381626    -0.18400
C1126       C  0.42861303  0.04618527  0.76653324    -0.08400
C1127       C  0.43432930  0.99267398  0.73643281    -0.18700
C1128       C  0.42707066  0.98006438  0.76001834    -0.23500
C1129       C  0.43224147  0.95851779  0.75975079     0.26900
C1130       C  0.41895322  0.94417852  0.77228576    -0.20200
C1131       C  0.42445915  0.92400749  0.77376039    -0.09900
C1132       C  0.44355755  0.91800273  0.76360534    -0.10400
C1133       C  0.45669068  0.93237275  0.75091232    -0.03400
C1134       C  0.45117203  0.95229868  0.74913013    -0.18500
H1135       H  0.46085182  0.05239145  0.70141109     0.10600
H1136       H  0.45475222  0.01693776  0.69591740     0.10700
H1137       H  0.41547973  0.01859250  0.78177538     0.10300
H1138       H  0.42148835  0.05433810  0.78648600     0.11500
H1139       H  0.44203228  0.98631003  0.71513775     0.11500
H1140       H  0.41832654  0.98548339  0.78084428     0.13400
H1141       H  0.40438402  0.94861317  0.78099758     0.10000
H1142       H  0.41405721  0.91322865  0.78372576     0.12100
H1143       H  0.47139794  0.92821309  0.74241347     0.08700
H1144       H  0.46208031  0.96290471  0.74033850     0.11400
C1145       C  0.43879268  0.09995321  0.44511461    -0.03200
C1146       C  0.42972847  0.08357328  0.46076438    -0.05800
C1147       C  0.42474188  0.08408535  0.49489036    -0.20900
C1148       C  0.42853974  0.10100571  0.51407943     0.24900
C1149       C  0.43661321  0.11782949  0.49780046    -0.18400
C1150       C  0.44163712  0.11727418  0.46370316    -0.08400
C1151       C  0.42605085  0.09957430  0.55133982    -0.18700
C1152       C  0.42652649  0.11522350  0.57208418    -0.23500
C1153       C  0.42827012  0.11330787  0.60941462     0.26900
C1154       C  0.43665287  0.12911743  0.62706945    -0.20200
C1155       C  0.44085545  0.12727637  0.66145304    -0.09900
C1156       C  0.43659743  0.10961379  0.67908905    -0.10400
C1157       C  0.42699069  0.09424600  0.66207834    -0.03400
C1158       C  0.42284230  0.09604766  0.62754204    -0.18500
H1159       H  0.42756973  0.06992665  0.44722494     0.10600
H1160       H  0.41863166  0.07088856  0.50668986     0.10700
H1161       H  0.44012976  0.13112621  0.51137993     0.10300
H1162       H  0.44843436  0.13019584  0.45214741     0.11500
H1163       H  0.42516409  0.08471909  0.56202881     0.11500
H1164       H  0.42737977  0.13010148  0.56152113     0.13400
H1165       H  0.44076572  0.14266802  0.61392331     0.10000
H1166       H  0.44799841  0.13948342  0.67407921     0.12100
H1167       H  0.42358560  0.08044765  0.67505119     0.08700
H1168       H  0.41573077  0.08376002  0.61521511     0.11400
C1169       C  0.49518500  0.85320432  0.37440704    -0.03200
C1170       C  0.50874470  0.86070563  0.39806363    -0.05800
C1171       C  0.52912111  0.85851049  0.39396989    -0.20900
C1172       C  0.53687958  0.84895479  0.36584165     0.24900
C1173       C  0.52356768  0.84102685  0.34208147    -0.18400
C1174       C  0.50284443  0.84305320  0.34642050    -0.08400
C1175       C  0.55891997  0.84868476  0.36283691    -0.18700
C1176       C  0.56967929  0.84392237  0.33554226    -0.23500
C1177       C  0.59141702  0.84812470  0.33547616     0.26900
C1178       C  0.60534520  0.83431313  0.32361686    -0.20200
C1179       C  0.62590170  0.83760607  0.32775947    -0.09900
C1180       C  0.63276482  0.85489160  0.34362967    -0.10400
C1181       C  0.61858255  0.86895522  0.35392755    -0.03400
C1182       C  0.59834928  0.86582104  0.34935270    -0.18500
H1183       H  0.50349051  0.86879207  0.41967684     0.10600
H1184       H  0.53891883  0.86486201  0.41266753     0.10700
H1185       H  0.52902220  0.83347588  0.32012085     0.10300
H1186       H  0.49310032  0.83714364  0.32738036     0.11500
H1187       H  0.56703020  0.85404345  0.38464861     0.11500
H1188       H  0.56280462  0.83744041  0.31355052     0.13400
H1189       H  0.60032423  0.82060164  0.31263805     0.10000
H1190       H  0.63614455  0.82619329  0.31994398     0.12100
H1191       H  0.62317720  0.88230855  0.36657747     0.08700
H1192       H  0.58802261  0.87706648  0.35779945     0.11400
C1193       C  0.78828201  0.79270574  0.31714364    -0.03200
C1194       C  0.80828731  0.79824645  0.32108224    -0.05800
C1195       C  0.82328887  0.78385524  0.32454357    -0.20900
C1196       C  0.81877203  0.76353642  0.32391924     0.24900
C1197       C  0.79864056  0.75798270  0.32065321    -0.18400
C1198       C  0.78361831  0.77241578  0.31722955    -0.08400
C1199       C  0.83554391  0.74889256  0.32693541    -0.18700
C1200       C  0.83415347  0.72955398  0.31878907    -0.23500
C1201       C  0.85108222  0.71499450  0.31963712     0.26900
C1202       C  0.84685438  0.69497732  0.31343843    -0.20200
C1203       C  0.86211647  0.68084608  0.31148659    -0.09900
C1204       C  0.88210932  0.68635865  0.31545731    -0.10400
C1205       C  0.88643165  0.70623602  0.32257353    -0.03400
C1206       C  0.87113701  0.72040651  0.32470409    -0.18500
H1207       H  0.81241273  0.81374906  0.32105253     0.10600
H1208       H  0.83857299  0.78865488  0.32720851     0.10700
H1209       H  0.79425921  0.74259627  0.32093668     0.10300
H1210       H  0.76834419  0.76766750  0.31424750     0.11500
H1211       H  0.84970486  0.75469423  0.33525984     0.11500
H1212       H  0.81999110  0.72393844  0.31003931     0.13400
H1213       H  0.83164527  0.69027106  0.30940224     0.10000
H1214       H  0.85826884  0.66568430  0.30577694     0.12100
H1215       H  0.90170931  0.71095782  0.32565681     0.08700
H1216       H  0.87533700  0.73555680  0.32928985     0.11400
C1217       C  0.63575538  0.85691579  0.76766641    -0.03200
C1218       C  0.62942716  0.86354487  0.79936321    -0.05800
C1219       C  0.60936309  0.86275994  0.80853860    -0.20900
C1220       C  0.59504963  0.85481413  0.78675837     0.24900
C1221       C  0.60147589  0.84681336  0.75614901    -0.18400
C1222       C  0.62152962  0.84771206  0.74684555    -0.08400
C1223       C  0.57355446  0.85714069  0.79518653    -0.18700
C1224       C  0.55862634  0.84722426  0.78010622    -0.23500
C1225       C  0.53718431  0.85254917  0.78397734     0.26900
C1226       C  0.52251100  0.83859416  0.77609725    -0.20200
C1227       C  0.50234039  0.84403504  0.77488579    -0.09900
C1228       C  0.49628300  0.86373139  0.78068295    -0.10400
C1229       C  0.51103197  0.87733874  0.79062673    -0.03400
C1230       C  0.53111982  0.87187811  0.79195987    -0.18500
H1231       H  0.63992521  0.87038315  0.81637547     0.10600
H1232       H  0.60491531  0.86900081  0.83233944     0.10700
H1233       H  0.59100901  0.84067313  0.73840403     0.10300
H1234       H  0.62536128  0.84155646  0.72287239     0.11500
H1235       H  0.56993399  0.86801408  0.81410017     0.11500
H1236       H  0.56208119  0.83505003  0.76354635     0.13400
H1237       H  0.52671574  0.82357477  0.76981400     0.10000
H1238       H  0.49148960  0.83306457  0.76755822     0.12100
H1239       H  0.50766160  0.89250982  0.79641843     0.08700
H1240       H  0.54188790  0.88323908  0.79758216     0.11400
C1241       C  0.68920407  0.85910159  0.67578390    -0.03200
C1242       C  0.70274971  0.87248757  0.66113573    -0.05800
C1243       C  0.70710140  0.87173390  0.62662846    -0.20900
C1244       C  0.69804220  0.85755625  0.60614199     0.24900
C1245       C  0.68593507  0.84308977  0.62135591    -0.18400
C1246       C  0.68161390  0.84383416  0.65568267    -0.08400
C1247       C  0.70018256  0.85880956  0.56882504    -0.18700
C1248       C  0.68446962  0.85539840  0.54856580    -0.23500
C1249       C  0.68406319  0.85897214  0.51160636     0.26900
C1250       C  0.66627851  0.86611889  0.49736177    -0.20200
C1251       C  0.66403294  0.86788530  0.46258690    -0.09900
C1252       C  0.67934410  0.86200689  0.44083822    -0.10400
C1253       C  0.69758542  0.85560473  0.45496946    -0.03400
C1254       C  0.69996321  0.85411745  0.49022572    -0.18500
H1255       H  0.70934552  0.88408969  0.67578782     0.10600
H1256       H  0.71676029  0.88285536  0.61562322     0.10700
H1257       H  0.67938071  0.83143706  0.60653342     0.10300
H1258       H  0.67190674  0.83263499  0.66626258     0.11500
H1259       H  0.71383378  0.86469092  0.55819347     0.11500
H1260       H  0.67030573  0.85164619  0.56005288     0.13400
H1261       H  0.65388893  0.87012462  0.51328765     0.10000
H1262       H  0.65000916  0.87350084  0.45269540     0.12100
H1263       H  0.70962983  0.85095385  0.43885136     0.08700
H1264       H  0.71380086  0.84836800  0.50064197     0.11400
C1265       C  0.88352385  0.69886186  0.80734783    -0.03200
C1266       C  0.86365661  0.69252638  0.80550894    -0.05800
C1267       C  0.84804599  0.70636292  0.80252087    -0.20900
C1268       C  0.85185377  0.72686790  0.80124457     0.24900
C1269       C  0.87185485  0.73311102  0.80206286    -0.18400
C1270       C  0.88742207  0.71927978  0.80493592    -0.08400
C1271       C  0.83457270  0.74105114  0.80142690    -0.18700
C1272       C  0.83604154  0.76085476  0.79597955    -0.23500
C1273       C  0.81929475  0.77544494  0.79932452     0.26900
C1274       C  0.82395775  0.79573729  0.80040560    -0.20200
C1275       C  0.80908505  0.81008858  0.80475898    -0.09900
C1276       C  0.78905058  0.80455656  0.80796884    -0.10400
C1277       C  0.78422966  0.78433031  0.80606707    -0.03400
C1278       C  0.79912698  0.76993256  0.80173022    -0.18500
H1279       H  0.86012377  0.67690075  0.80737916     0.10600
H1280       H  0.83287319  0.70101555  0.80200135     0.10700
H1281       H  0.87575422  0.74861513  0.80180417     0.10300
H1282       H  0.90255203  0.72467075  0.80647522     0.11500
H1283       H  0.82019961  0.73474310  0.80736384     0.11500
H1284       H  0.85038244  0.76710301  0.78972743     0.13400
H1285       H  0.83927937  0.80053063  0.79847556     0.10000
H1286       H  0.81334126  0.82552190  0.80616029     0.12100
H1287       H  0.76891992  0.77957889  0.80836475     0.08700
H1288       H  0.79463607  0.75461533  0.80028071     0.11400
C1289       C  0.74400701  0.83973045  0.94454926    -0.03200
C1290       C  0.75976214  0.84800011  0.96292818    -0.05800
C1291       C  0.76083100  0.84567554  0.99784455    -0.20900
C1292       C  0.74608630  0.83524417  0.01544542     0.24900
C1293       C  0.73023650  0.82690369  0.99719073    -0.18400
C1294       C  0.72923530  0.82912228  0.96199780    -0.08400
C1295       C  0.74833456  0.83313383  0.05259703    -0.18700
C1296       C  0.73307064  0.83062744  0.07412193    -0.23500
C1297       C  0.73556250  0.83048424  0.11152674     0.26900
C1298       C  0.72030663  0.82268427  0.13178493    -0.20200
C1299       C  0.72175090  0.82304675  0.16702286    -0.09900
C1300       C  0.73843646  0.83141363  0.18273673    -0.10400
C1301       C  0.75370507  0.83916908  0.16253696    -0.03400
C1302       C  0.75228500  0.83881277  0.12745319    -0.18500
H1303       H  0.77139198  0.85626171  0.95030010     0.10600
H1304       H  0.77321420  0.85220292  0.01123140     0.10700
H1305       H  0.71884141  0.81836570  0.00983075     0.10300
H1306       H  0.71698204  0.82249313  0.94845892     0.11500
H1307       H  0.76333564  0.83457204  0.06239791     0.11500
H1308       H  0.71808908  0.82899830  0.06420489     0.13400
H1309       H  0.70716672  0.81637598  0.12029828     0.10000
H1310       H  0.70967884  0.81707779  0.18193674     0.12100
H1311       H  0.76669071  0.84587046  0.17386578     0.08700
H1312       H  0.76411222  0.84567201  0.11321524     0.11400
C1313       C  0.63383641  0.09907224  0.36169760    -0.03200
C1314       C  0.62724821  0.11765674  0.37313238    -0.05800
C1315       C  0.60721886  0.12332420  0.37017038    -0.20900
C1316       C  0.59330348  0.11092771  0.35462147     0.24900
C1317       C  0.60015239  0.09313357  0.34058678    -0.18400
C1318       C  0.62013053  0.08740921  0.34375937    -0.08400
C1319       C  0.57168596  0.11603054  0.35661539    -0.18700
C1320       C  0.55747560  0.10786076  0.33707696    -0.23500
C1321       C  0.53556554  0.10954991  0.34303784     0.26900
C1322       C  0.52250930  0.10060088  0.32014331    -0.20200
C1323       C  0.50222369  0.09875582  0.32731023    -0.09900
C1324       C  0.49436048  0.10555928  0.35786643    -0.10400
C1325       C  0.50716235  0.11614188  0.37933835    -0.03400
C1326       C  0.52745721  0.11797761  0.37217966    -0.18500
H1327       H  0.63744243  0.12739538  0.38601908     0.10600
H1328       H  0.60246819  0.13720938  0.38098529     0.10700
H1329       H  0.59006826  0.08303157  0.32841841     0.10300
H1330       H  0.62442799  0.07365358  0.33232610     0.11500
H1331       H  0.56752796  0.12646340  0.37583958     0.11500
H1332       H  0.56199620  0.09861004  0.31633794     0.13400
H1333       H  0.52816949  0.09414462  0.29726426     0.10000
H1334       H  0.49283122  0.09084770  0.30983979     0.12100
H1335       H  0.50209971  0.12245068  0.40253018     0.08700
H1336       H  0.53668744  0.12523981  0.39054570     0.11400
C1337       C  0.68587567  0.04309002  0.36899999    -0.03200
C1338       C  0.70077887  0.03488701  0.39004053    -0.05800
C1339       C  0.70586132  0.01473891  0.38831135    -0.20900
C1340       C  0.69647479  0.00230717  0.36509985     0.24900
C1341       C  0.68229477  0.01071961  0.34280620    -0.18400
C1342       C  0.67721617  0.03081962  0.34458540    -0.08400
C1343       C  0.70030161  0.98047254  0.36720280    -0.18700
C1344       C  0.69605138  0.96789268  0.34205133    -0.23500
C1345       C  0.69575468  0.94575984  0.34537959     0.26900
C1346       C  0.68921374  0.93494555  0.31748301    -0.20200
C1347       C  0.68521802  0.91468797  0.32048206    -0.09900
C1348       C  0.68786991  0.90462142  0.35141237    -0.10400
C1349       C  0.69598700  0.91490866  0.37864318    -0.03400
C1350       C  0.69981741  0.93531698  0.37578481    -0.18500
H1351       H  0.70808996  0.04372312  0.40875490     0.10600
H1352       H  0.71684684  0.00872284  0.40579974     0.10700
H1353       H  0.67438971  0.00176975  0.32482615     0.10300
H1354       H  0.66617943  0.03660784  0.32702893     0.11500
H1355       H  0.70611927  0.97475257  0.39093132     0.11500
H1356       H  0.69142951  0.97407814  0.31784851     0.13400
H1357       H  0.68618438  0.94239218  0.29361612     0.10000
H1358       H  0.67925866  0.90702193  0.29889996     0.12100
H1359       H  0.69814959  0.90746814  0.40276506     0.08700
H1360       H  0.70509607  0.94279322  0.39793254     0.11400
C1361       C  0.78784410  0.14686123  0.31835767    -0.03200
C1362       C  0.80708090  0.14013625  0.32684397    -0.05800
C1363       C  0.82298973  0.15340887  0.32829361    -0.20900
C1364       C  0.82008669  0.17371758  0.32137742     0.24900
C1365       C  0.80068444  0.18050710  0.31361634    -0.18400
C1366       C  0.78475351  0.16723106  0.31236437    -0.08400
C1367       C  0.83782739  0.18695440  0.32066447    -0.18700
C1368       C  0.83681880  0.20693011  0.32168563    -0.23500
C1369       C  0.85447464  0.22023511  0.31994428     0.26900
C1370       C  0.85222634  0.24001801  0.32991303    -0.20200
C1371       C  0.86805117  0.25335575  0.32747625    -0.09900
C1372       C  0.88655711  0.24723641  0.31493121    -0.10400
C1373       C  0.88891950  0.22743488  0.30508129    -0.03400
C1374       C  0.87305090  0.21409581  0.30735218    -0.18500
H1375       H  0.80995215  0.12451481  0.33153159     0.10600
H1376       H  0.83772250  0.14770781  0.33424945     0.10700
H1377       H  0.79772326  0.19587776  0.30724346     0.10300
H1378       H  0.77013563  0.17282835  0.30539776     0.11500
H1379       H  0.85228537  0.17974776  0.32008514     0.11500
H1380       H  0.82248549  0.21406900  0.32500636     0.13400
H1381       H  0.83809236  0.24523865  0.33944561     0.10000
H1382       H  0.86571956  0.26854120  0.33509295     0.12100
H1383       H  0.90292187  0.22235382  0.29484202     0.08700
H1384       H  0.87535433  0.19921449  0.29837152     0.11400
C1385       C  0.75465503  0.90102763  0.29674941    -0.03200
C1386       C  0.76791852  0.90893198  0.32043479    -0.05800
C1387       C  0.76959038  0.92947661  0.32387578    -0.20900
C1388       C  0.75782791  0.94242874  0.30410276     0.24900
C1389       C  0.74494751  0.93447216  0.27976369    -0.18400
C1390       C  0.74334901  0.91400632  0.27622756    -0.08400
C1391       C  0.75963178  0.96415739  0.30856900    -0.18700
C1392       C  0.74424506  0.97657888  0.30240332    -0.23500
C1393       C  0.74522368  0.99857448  0.30300286     0.26900
C1394       C  0.72875394  0.00914657  0.29018808    -0.20200
C1395       C  0.72894857  0.02975594  0.28811673    -0.09900
C1396       C  0.74559169  0.04041548  0.29908714    -0.10400
C1397       C  0.76193953  0.03001229  0.31291305    -0.03400
C1398       C  0.76181322  0.00923017  0.31480066    -0.18500
H1399       H  0.77684722  0.89924687  0.33651663     0.10600
H1400       H  0.77981205  0.93526603  0.34244684     0.10700
H1401       H  0.73622301  0.94397969  0.26310391     0.10300
H1402       H  0.73307002  0.90834996  0.25762376     0.11500
H1403       H  0.77383786  0.96973143  0.31718729     0.11500
H1404       H  0.73001042  0.97028948  0.29531831     0.13400
H1405       H  0.71570491  0.00141031  0.28122485     0.10000
H1406       H  0.71596279  0.03735241  0.27787937     0.12100
H1407       H  0.77485050  0.03791344  0.32197707     0.08700
H1408       H  0.77470243  0.00176487  0.32544836     0.11400
C1409       C  0.62937039  0.10174837  0.77612621    -0.03200
C1410       C  0.62367132  0.12168851  0.77067456    -0.05800
C1411       C  0.60377645  0.12768462  0.77370908    -0.20900
C1412       C  0.58903439  0.11400113  0.78283389     0.24900
C1413       C  0.59473784  0.09427671  0.78975760    -0.18400
C1414       C  0.61455919  0.08824816  0.78658166    -0.08400
C1415       C  0.56769520  0.12002424  0.78081119    -0.18700
C1416       C  0.55306402  0.11022475  0.79707305    -0.23500
C1417       C  0.53146370  0.11262128  0.78908532     0.26900
C1418       C  0.51743827  0.10431204  0.81114732    -0.20200
C1419       C  0.49736225  0.10301503  0.80178717    -0.09900
C1420       C  0.49071740  0.10983295  0.76992555    -0.10400
C1421       C  0.50466866  0.11938598  0.74882734    -0.03400
C1422       C  0.52471307  0.12062985  0.75816074    -0.18500
H1423       H  0.63457006  0.13251104  0.76259455     0.10600
H1424       H  0.59979884  0.14295312  0.76793209     0.10700
H1425       H  0.58379587  0.08310215  0.79588424     0.10300
H1426       H  0.61761278  0.07276605  0.79112827     0.11500
H1427       H  0.56400749  0.13246449  0.76425773     0.11500
H1428       H  0.55703757  0.09909095  0.81600631     0.13400
H1429       H  0.52216594  0.09800942  0.83516575     0.10000
H1430       H  0.48711637  0.09573587  0.81885374     0.12100
H1431       H  0.50077700  0.12527795  0.72432770     0.08700
H1432       H  0.53494578  0.12689634  0.74005271     0.11400
C1433       C  0.68326602  0.04803520  0.76962719    -0.03200
C1434       C  0.67877092  0.03740056  0.79930175    -0.05800
C1435       C  0.68385450  0.01735627  0.80281063    -0.20900
C1436       C  0.69328781  0.00732651  0.77657609     0.24900
C1437       C  0.69904190  0.01828778  0.74776671    -0.18400
C1438       C  0.69411482  0.03847232  0.74445332    -0.08400
C1439       C  0.69565296  0.98537548  0.77978972    -0.18700
C1440       C  0.69703850  0.97319935  0.75323580    -0.23500
C1441       C  0.69523662  0.95117627  0.75572948     0.26900
C1442       C  0.70146468  0.93970385  0.72843263    -0.20200
C1443       C  0.69762608  0.91931446  0.72760986    -0.09900
C1444       C  0.68720076  0.90999958  0.75384268    -0.10400
C1445       C  0.68165896  0.92125899  0.78181189    -0.03400
C1446       C  0.68557830  0.94159310  0.78278873    -0.18500
H1447       H  0.67084425  0.04449527  0.81955231     0.10600
H1448       H  0.67955855  0.00943635  0.82554626     0.10700
H1449       H  0.70701427  0.01134070  0.72748635     0.10300
H1450       H  0.69800407  0.04627965  0.72155526     0.11500
H1451       H  0.69441606  0.97901728  0.80492538     0.11500
H1452       H  0.69836770  0.97950530  0.72807336     0.13400
H1453       H  0.70876820  0.94667073  0.70711488     0.10000
H1454       H  0.70185233  0.91113711  0.70562778     0.12100
H1455       H  0.67370899  0.91440996  0.80255490     0.08700
H1456       H  0.68009095  0.94976958  0.80403608     0.11400
C1457       C  0.68123135  0.09791886  0.68568570    -0.03200
C1458       C  0.67483186  0.11468318  0.66709203    -0.05800
C1459       C  0.68006150  0.11708973  0.63331886    -0.20900
C1460       C  0.69151184  0.10266051  0.61714797     0.24900
C1461       C  0.69871664  0.08631420  0.63609465    -0.18400
C1462       C  0.69372113  0.08408646  0.67013421    -0.08400
C1463       C  0.69466906  0.10494803  0.58031311    -0.18700
C1464       C  0.69701561  0.08952526  0.55947244    -0.23500
C1465       C  0.69494145  0.09141007  0.52220811     0.26900
C1466       C  0.70257563  0.07636330  0.50180872    -0.20200
C1467       C  0.69836868  0.07621720  0.46720142    -0.09900
C1468       C  0.68616634  0.09094342  0.45241228    -0.10400
C1469       C  0.67934042  0.10649853  0.47254404    -0.03400
C1470       C  0.68354576  0.10669783  0.50697980    -0.18500
H1471       H  0.66559162  0.12587938  0.67859100     0.10600
H1472       H  0.67451187  0.12994407  0.61943294     0.10700
H1473       H  0.70809049  0.07519184  0.62476936     0.10300
H1474       H  0.69912978  0.07122072  0.68385853     0.11500
H1475       H  0.69294704  0.11979431  0.56977681     0.11500
H1476       H  0.69900301  0.07466865  0.56986638     0.13400
H1477       H  0.71127021  0.06433180  0.51287883     0.10000
H1478       H  0.70380676  0.06402591  0.45254575     0.12100
H1479       H  0.67016506  0.11827765  0.46185317     0.08700
H1480       H  0.67687428  0.11832530  0.52163877     0.11400
C1481       C  0.87851992  0.26272163  0.81788295    -0.03200
C1482       C  0.85897790  0.27029208  0.81794190    -0.05800
C1483       C  0.84261127  0.25760251  0.81502095    -0.20900
C1484       C  0.84531499  0.23704301  0.81174732     0.24900
C1485       C  0.86491780  0.22947969  0.81136906    -0.18400
C1486       C  0.88128226  0.24217522  0.81431689    -0.08400
C1487       C  0.82742405  0.22392325  0.81144268    -0.18700
C1488       C  0.82748361  0.20534305  0.79915941    -0.23500
C1489       C  0.81061790  0.19098143  0.80190973     0.26900
C1490       C  0.81439254  0.17107468  0.79400450    -0.20200
C1491       C  0.79972073  0.15661667  0.79806243    -0.09900
C1492       C  0.78070468  0.16167097  0.80979646    -0.10400
C1493       C  0.77659495  0.18165384  0.81675829    -0.03400
C1494       C  0.79135924  0.19617169  0.81288564    -0.18500
H1495       H  0.85630434  0.28601944  0.82087351     0.10600
H1496       H  0.82773939  0.26386547  0.81572858     0.10700
H1497       H  0.86776887  0.21371722  0.81005286     0.10300
H1498       H  0.89612121  0.23581822  0.81464601     0.11500
H1499       H  0.81396626  0.22989874  0.82234098     0.11500
H1500       H  0.84093566  0.19990980  0.78737159     0.13400
H1501       H  0.82897055  0.16654961  0.78537426     0.10000
H1502       H  0.80340292  0.14136377  0.79247488     0.12100
H1503       H  0.76208920  0.18600726  0.82592412     0.08700
H1504       H  0.78752225  0.21129596  0.81876075     0.11400
C1505       C  0.75311576  0.05176671  0.83167680    -0.03200
C1506       C  0.76659148  0.04405805  0.80827647    -0.05800
C1507       C  0.76848475  0.02353706  0.80448168    -0.20900
C1508       C  0.75671425  0.01049175  0.82358106     0.24900
C1509       C  0.74371237  0.01825860  0.84772176    -0.18400
C1510       C  0.74190950  0.03865757  0.85163352    -0.08400
C1511       C  0.75866547  0.98883089  0.81888011    -0.18700
C1512       C  0.74327414  0.97648412  0.82410219    -0.23500
C1513       C  0.74458723  0.95451044  0.82409803     0.26900
C1514       C  0.72812651  0.94384944  0.83599484    -0.20200
C1515       C  0.72883768  0.92324418  0.83883214    -0.09900
C1516       C  0.74601843  0.91276480  0.82955748    -0.10400
C1517       C  0.76232237  0.92326938  0.81669486    -0.03400
C1518       C  0.76166834  0.94397355  0.81402039    -0.18500
H1519       H  0.77544650  0.05386642  0.79264946     0.10600
H1520       H  0.77883929  0.01784601  0.78613695     0.10700
H1521       H  0.73502836  0.00863798  0.86391769     0.10300
H1522       H  0.73148415  0.04416134  0.87002615     0.11500
H1523       H  0.77306185  0.98325602  0.81121694     0.11500
H1524       H  0.72888051  0.98282224  0.83024221     0.13400
H1525       H  0.71472788  0.95151461  0.84371582     0.10000
H1526       H  0.71587601  0.91550981  0.84826310     0.12100
H1527       H  0.77564915  0.91549293  0.80900258     0.08700
H1528       H  0.77459530  0.95145256  0.80414538     0.11400
C1529       C  0.73816637  0.11941079  0.94629640    -0.03200
C1530       C  0.75645724  0.11967433  0.96353417    -0.05800
C1531       C  0.75711915  0.11988850  0.99864346    -0.20900
C1532       C  0.73955263  0.11970556  0.01762990     0.24900
C1533       C  0.72112467  0.11957786  0.00035824    -0.18400
C1534       C  0.72048229  0.11950281  0.96501034    -0.08400
C1535       C  0.74159759  0.11919050  0.05509912    -0.18700
C1536       C  0.72641255  0.11850993  0.07717477    -0.23500
C1537       C  0.72956327  0.11705428  0.11436334     0.26900
C1538       C  0.71448149  0.12361391  0.13595801    -0.20200
C1539       C  0.71679836  0.12208293  0.17101500    -0.09900
C1540       C  0.73417658  0.11370416  0.18521075    -0.10400
C1541       C  0.74918097  0.10696925  0.16364160    -0.03400
C1542       C  0.74690854  0.10855564  0.12868693    -0.18500
H1543       H  0.77035967  0.11962053  0.94986029     0.10600
H1544       H  0.77152683  0.11997693  0.01104710     0.10700
H1545       H  0.70716933  0.11937801  0.01368935     0.10300
H1546       H  0.70616564  0.11918294  0.95234885     0.11500
H1547       H  0.75669259  0.11944708  0.06493785     0.11500
H1548       H  0.71116688  0.11940098  0.06824756     0.13400
H1549       H  0.70087493  0.12998720  0.12566302     0.10000
H1550       H  0.70488838  0.12723046  0.18698776     0.12100
H1551       H  0.76265374  0.10024027  0.17378750     0.08700
H1552       H  0.75859188  0.10260729  0.11311832     0.11400
loop_ 
_geom_bond_atom_site_label_1 
_geom_bond_atom_site_label_2 
_geom_bond_distance 
_geom_bond_site_symmetry_2 
_ccdc_geom_bond_type 
O1            C4   1.269       .  A
O1           Cd6   2.497       .  S
C2           O11   1.263       .  A
C2            O7   1.268       .  A
C2           C19   1.480       .  S
O3            C9   1.265       .  A
O3           Cd6   2.461       .  S
C4           O12   1.265       .  A
C4         C1529   1.481       .  S
C5           O10   1.267       .  A
C5            O8   1.264       .  A
C5         C1505   1.473       .  S
Cd6          O13   2.504       .  S
Cd6          O12   2.434       .  S
Cd6          O11   2.456       .  S
Cd6           O7   2.496       .  S
Cd6          O10   2.474       .  S
Cd6           O8   2.419       .  S
C9           O13   1.268       .  A
C9         C1492   1.486       .  S
C14          C15   1.544       .  S
C14          C20   1.535       .  S
C14          C18   1.540       .  S
C14        C1409   1.534       .  S
C15          H22   1.080       .  S
C15          C16   1.365       .  D
C16        C1433   1.490       .  S
C16          C17   1.541       .  S
C17          C21   1.540       .  S
C17          C19   1.546       .  S
C17          H23   1.110       .  S
C18          H24   1.086       .  S
C18          C19   1.370       .  D
C20          H25   1.086       .  S
C20          C21   1.365       .  D
C21        C1457   1.486       .  S
O26          C29   1.267       .  A
O26         Cd31   2.479       .  S
C27          O36   1.266       .  A
C27          O32   1.268       .  A
C27        C1540   1.483       .  S
O28          C34   1.265       .  A
O28         Cd31   2.469       .  S
C29          O37   1.263       .  A
C29          C44   1.478       .  S
C30          O35   1.269       .  A
C30          O33   1.264       .  A
C30        C1396   1.476       .  S
Cd31         O38   2.480       .  S
Cd31         O37   2.455       .  S
Cd31         O36   2.457       .  S
Cd31         O32   2.489       .  S
Cd31         O35   2.492       .  S
Cd31         O33   2.412       .  S
C34          O38   1.266       .  A
C34        C1361   1.482       .  S
C39          C40   1.533       .  S
C39          C45   1.545       .  S
C39          C43   1.536       .  S
C39        C1313   1.535       .  S
C40          H47   1.086       .  S
C40          C41   1.365       .  D
C41        C1468   1.489       .  S
C41          C42   1.543       .  S
C42          C46   1.545       .  S
C42          C44   1.544       .  S
C42          H48   1.109       .  S
C43          H49   1.086       .  S
C43          C44   1.368       .  D
C45          H50   1.080       .  S
C45          C46   1.369       .  D
C46        C1337   1.501       .  S
O51          C54   1.270       .  A
O51         Cd56   2.501       .  S
C52          O61   1.264       .  A
C52          O57   1.270       .  A
C52          C69   1.481       .  S
O53          C59   1.270       .  A
O53         Cd56   2.479       .  S
C54          O62   1.265       .  A
C54        C1289   1.482       .  S
C55          O60   1.267       .  A
C55          O58   1.267       .  A
C55        C1276   1.488       .  S
Cd56         O63   2.418       .  S
Cd56         O62   2.431       .  S
Cd56         O61   2.452       .  S
Cd56         O57   2.489       .  S
Cd56         O60   2.485       .  S
Cd56         O58   2.485       .  S
C59          O63   1.264       .  A
C59        C1516   1.475       .  S
C64          C65   1.542       .  S
C64          C70   1.536       .  S
C64          C68   1.539       .  S
C64        C1217   1.536       .  S
C65          H72   1.079       .  S
C65          C66   1.370       .  D
C66        C1241   1.498       .  S
C66          C67   1.545       .  S
C67          C71   1.543       .  S
C67          C69   1.547       .  S
C67          H73   1.110       .  S
C68          H74   1.086       .  S
C68          C69   1.369       .  D
C70          H75   1.087       .  S
C70          C71   1.363       .  D
C71        C1444   1.488       .  S
O76          C79   1.269       .  A
O76         Cd81   2.499       .  S
C77          O86   1.263       .  A
C77          O82   1.268       .  A
C77          C94   1.483       .  S
O78          C84   1.264       .  A
O78         Cd81   2.475       .  S
C79          O87   1.265       .  A
C79        C1300   1.482       .  S
C80          O85   1.268       .  A
C80          O83   1.266       .  A
C80        C1385   1.475       .  S
Cd81         O88   2.499       .  S
Cd81         O87   2.443       .  S
Cd81         O86   2.474       .  S
Cd81         O82   2.495       .  S
Cd81         O85   2.465       .  S
Cd81         O83   2.432       .  S
C84          O88   1.267       .  A
C84        C1193   1.486       .  S
C89          C90   1.537       .  S
C89          C95   1.528       .  S
C89          C93   1.540       .  S
C89        C1180   1.527       .  S
C90          H97   1.086       .  S
C90          C91   1.364       .  D
C91        C1348   1.487       .  S
C91          C92   1.543       .  S
C92          C96   1.544       .  S
C92          C94   1.553       .  S
C92          H98   1.110       .  S
C93          H99   1.084       .  S
C93          C94   1.374       .  D
C95         H100   1.087       .  S
C95          C96   1.364       .  D
C96        C1252   1.493       .  S
C101        C102   1.543       .  S
C101        C107   1.541       .  S
C101        C105   1.540       .  S
C101       C1420   1.535       .  S
C102        H109   1.080       .  S
C102        C103   1.366       .  D
C103       C1156   1.484       .  S
C103        C104   1.538       .  S
C104        C108   1.533       .  S
C104        C106   1.542       .  S
C104        H110   1.111       .  S
C105        H111   1.086       .  S
C105        C106   1.370       .  D
C106        C114   1.478       .  S
C107        H112   1.087       .  S
C107        C108   1.364       .  D
C108       C1121   1.478       .  S
O113        C116   1.267       .  A
O113       Cd118   2.499       .  S
C114        O123   1.263       .  A
C114        O119   1.267       .  A
O115        C121   1.267       .  A
O115       Cd118   2.481       .  S
C116        O124   1.264       .  A
C116       C1097   1.477       .  S
C117        O122   1.265       .  A
C117        O120   1.267       .  A
C117       C1049   1.487       .  S
Cd118       O125   2.437       .  S
Cd118       O124   2.430       .  S
Cd118       O123   2.455       .  S
Cd118       O119   2.488       .  S
Cd118       O122   2.472       .  S
Cd118       O120   2.499       .  S
C121        O125   1.265       .  A
C121       C1084   1.476       .  S
C126        C127   1.538       .  S
C126        C132   1.545       .  S
C126        C130   1.538       .  S
C126       C1324   1.535       .  S
C127        H134   1.087       .  S
C127        C128   1.364       .  D
C128       C1025   1.487       .  S
C128        C129   1.537       .  S
C129        C133   1.539       .  S
C129        C131   1.544       .  S
C129        H135   1.110       .  S
C130        H136   1.086       .  S
C130        C131   1.369       .  D
C131        C141   1.479       .  S
C132        H137   1.080       .  S
C132        C133   1.368       .  D
C133       C1145   1.485       .  S
O138        C141   1.266       .  A
O138       Cd143   2.496       .  S
C139        O148   1.266       .  A
C139        O144   1.268       .  A
C139       C1108   1.479       .  S
O140        C146   1.267       .  A
O140       Cd143   2.467       .  S
C141        O149   1.262       .  A
C142        O147   1.263       .  A
C142        O145   1.265       .  A
C142        C977   1.485       .  S
Cd143       O150   2.435       .  S
Cd143       O149   2.465       .  S
Cd143       O148   2.438       .  S
Cd143       O144   2.482       .  S
Cd143       O147   2.480       .  S
Cd143       O145   2.494       .  S
C146        O150   1.265       .  A
C146       C1012   1.474       .  S
C151        C152   1.546       .  S
C151        C157   1.537       .  S
C151        C155   1.539       .  S
C151       C1228   1.537       .  S
C152        H159   1.080       .  S
C152        C153   1.366       .  D
C153       C1132   1.490       .  S
C153        C154   1.536       .  S
C154        C158   1.539       .  S
C154        C156   1.547       .  S
C154        H160   1.110       .  S
C155        H161   1.086       .  S
C155        C156   1.371       .  D
C156        C166   1.483       .  S
C157        H162   1.087       .  S
C157        C158   1.365       .  D
C158        C964   1.483       .  S
O163        C166   1.269       .  A
O163       Cd168   2.505       .  S
C164        O173   1.265       .  A
C164        O169   1.269       .  A
C164        C929   1.485       .  S
O165        C171   1.267       .  A
O165       Cd168   2.478       .  S
C166        O174   1.263       .  A
C167        O172   1.266       .  A
C167        O170   1.267       .  A
C167        C905   1.488       .  S
Cd168       O175   2.439       .  S
Cd168       O174   2.463       .  S
Cd168       O173   2.446       .  S
Cd168       O169   2.510       .  S
Cd168       O172   2.482       .  S
Cd168       O170   2.491       .  S
C171        O175   1.264       .  A
C171       C1073   1.475       .  S
C176        C177   1.536       .  S
C176        C182   1.534       .  S
C176        C180   1.542       .  S
C176       C1169   1.527       .  S
C177        H184   1.087       .  S
C177        C178   1.365       .  D
C178        C953   1.485       .  S
C178        C179   1.541       .  S
C179        C183   1.540       .  S
C179        C181   1.550       .  S
C179        H185   1.110       .  S
C180        H186   1.083       .  S
C180        C181   1.372       .  D
C181        C189   1.482       .  S
C182        H187   1.087       .  S
C182        C183   1.362       .  D
C183       C1036   1.488       .  S
O188        C191   1.269       .  A
O188       Cd193   2.506       .  S
C189        O198   1.262       .  A
C189        O194   1.266       .  A
O190        C196   1.265       .  A
O190       Cd193   2.469       .  S
C191        O199   1.266       .  A
C191        C940   1.487       .  S
C192        O197   1.264       .  A
C192        O195   1.267       .  A
C192        C881   1.491       .  S
Cd193       O200   2.466       .  S
Cd193       O199   2.458       .  S
Cd193       O198   2.480       .  S
Cd193       O194   2.502       .  S
Cd193       O197   2.489       .  S
Cd193       O195   2.516       .  S
C196        O200   1.265       .  A
C196       C1001   1.476       .  S
O201        C204   1.268       .  A
O201       Cd206   2.489       .  S
C202        O211   1.265       .  A
C202        O207   1.269       .  A
C202        C857   1.485       .  S
O203        C209   1.265       .  A
O203       Cd206   2.470       .  S
C204        O212   1.263       .  A
C204        C219   1.481       .  S
C205        O210   1.269       .  A
C205        O208   1.265       .  A
C205        C833   1.480       .  S
Cd206       O213   2.511       .  S
Cd206       O212   2.467       .  S
Cd206       O211   2.441       .  S
Cd206       O207   2.511       .  S
Cd206       O210   2.489       .  S
Cd206       O208   2.436       .  S
C209        O213   1.267       .  A
C209        C916   1.488       .  S
C214        C215   1.534       .  S
C214        C220   1.543       .  S
C214        C218   1.537       .  S
C214        C761   1.533       .  S
C215        H222   1.086       .  S
C215        C216   1.365       .  D
C216        C820   1.491       .  S
C216        C217   1.544       .  S
C217        C221   1.542       .  S
C217        C219   1.547       .  S
C217        H223   1.110       .  S
C218        H224   1.086       .  S
C218        C219   1.369       .  D
C220        H225   1.082       .  S
C220        C221   1.365       .  D
C221        C796   1.486       .  S
O226        C229   1.268       .  A
O226       Cd231   2.508       .  S
C227        O236   1.266       .  A
C227        O232   1.270       .  A
C227        C868   1.486       .  S
O228        C234   1.267       .  A
O228       Cd231   2.487       .  S
C229        O237   1.261       .  A
C229        C244   1.479       .  S
C230        O235   1.265       .  A
C230        O233   1.265       .  A
C230        C892   1.490       .  S
Cd231       O238   2.449       .  S
Cd231       O237   2.450       .  S
Cd231       O236   2.454       .  S
Cd231       O232   2.510       .  S
Cd231       O235   2.498       .  S
Cd231       O233   2.502       .  S
C234        O238   1.265       .  A
C234        C748   1.478       .  S
C239        C240   1.540       .  S
C239        C245   1.535       .  S
C239        C243   1.544       .  S
C239        C700   1.528       .  S
C240        H247   1.086       .  S
C240        C241   1.368       .  D
C241        C713   1.496       .  S
C241        C242   1.541       .  S
C242        C246   1.541       .  S
C242        C244   1.546       .  S
C242        H248   1.109       .  S
C243        H249   1.083       .  S
C243        C244   1.369       .  D
C245        H250   1.087       .  S
C245        C246   1.361       .  D
C246        C809   1.483       .  S
O251        C254   1.266       .  A
O251       Cd256   2.483       .  S
C252        O261   1.266       .  A
C252        O257   1.267       .  A
C252        C665   1.478       .  S
O253        C259   1.267       .  A
O253       Cd256   2.496       .  S
C254        O262   1.264       .  A
C254        C269   1.478       .  S
C255        O260   1.266       .  A
C255        O258   1.267       .  A
C255       C1265   1.487       .  S
Cd256       O263   2.438       .  S
Cd256       O262   2.462       .  S
Cd256       O261   2.449       .  S
Cd256       O257   2.483       .  S
Cd256       O260   2.475       .  S
Cd256       O258   2.499       .  S
C259        O263   1.263       .  A
C259        C844   1.479       .  S
C264        C265   1.540       .  S
C264        C270   1.533       .  S
C264        C268   1.544       .  S
C264        C617   1.530       .  S
C265        H272   1.087       .  S
C265        C266   1.363       .  D
C266        C785   1.483       .  S
C266        C267   1.537       .  S
C267        C271   1.541       .  S
C267        C269   1.543       .  S
C267        H273   1.111       .  S
C268        H274   1.083       .  S
C268        C269   1.372       .  D
C270        H275   1.086       .  S
C270        C271   1.365       .  D
C271        C641   1.484       .  S
O276        C279   1.268       .  A
O276       Cd281   2.480       .  S
C277        O286   1.264       .  A
C277        O282   1.268       .  A
C277        C294   1.478       .  S
O278        C284   1.269       .  A
O278       Cd281   2.490       .  S
C279        O287   1.265       .  A
C279        C676   1.479       .  S
C280        O285   1.267       .  A
C280        O283   1.267       .  A
C280       C1204   1.485       .  S
Cd281       O288   2.438       .  S
Cd281       O287   2.445       .  S
Cd281       O286   2.429       .  S
Cd281       O282   2.498       .  S
Cd281       O285   2.485       .  S
Cd281       O283   2.473       .  S
C284        O288   1.264       .  A
C284        C737   1.480       .  S
C289        C290   1.534       .  S
C289        C295   1.537       .  S
C289        C293   1.550       .  S
C289        C604   1.530       .  S
C290        H297   1.087       .  S
C290        C291   1.363       .  D
C291        C652   1.483       .  S
C291        C292   1.538       .  S
C292        C296   1.537       .  S
C292        C294   1.542       .  S
C292        H298   1.110       .  S
C293        H299   1.083       .  S
C293        C294   1.376       .  D
C295        H300   1.087       .  S
C295        C296   1.363       .  D
C296        C724   1.487       .  S
C301        C302   1.544       .  S
C301        C307   1.541       .  S
C301        C305   1.539       .  S
C301        C772   1.534       .  S
C302        H309   1.084       .  S
C302        C303   1.364       .  D
C303        C556   1.488       .  S
C303        C304   1.539       .  S
C304        C308   1.540       .  S
C304        C306   1.540       .  S
C304        H310   1.109       .  S
C305        H311   1.086       .  S
C305        C306   1.369       .  D
C306        C314   1.476       .  S
C307        H312   1.085       .  S
C307        C308   1.369       .  D
C308        C580   1.494       .  S
O313        C316   1.268       .  A
O313       Cd318   2.494       .  S
C314        O323   1.264       .  A
C314        O319   1.268       .  A
O315        C321   1.267       .  A
O315       Cd318   2.487       .  S
C316        O324   1.265       .  A
C316        C532   1.481       .  S
C317        O322   1.270       .  A
C317        O320   1.264       .  A
C317        C508   1.479       .  S
Cd318       O325   2.487       .  S
Cd318       O324   2.437       .  S
Cd318       O323   2.426       .  S
Cd318       O319   2.492       .  S
Cd318       O322   2.507       .  S
Cd318       O320   2.419       .  S
C321        O325   1.267       .  A
C321       C1060   1.487       .  S
C326        C327   1.534       .  S
C326        C332   1.536       .  S
C326        C330   1.546       .  S
C326        C689   1.527       .  S
C327        H334   1.086       .  S
C327        C328   1.363       .  D
C328        C569   1.484       .  S
C328        C329   1.539       .  S
C329        C333   1.536       .  S
C329        C331   1.542       .  S
C329        H335   1.110       .  S
C330        H336   1.083       .  S
C330        C331   1.375       .  D
C331        C339   1.480       .  S
C332        H337   1.087       .  S
C332        C333   1.362       .  D
C333        C484   1.481       .  S
O338        C341   1.266       .  A
O338       Cd343   2.493       .  S
C339        O348   1.265       .  A
C339        O344   1.265       .  A
O340        C346   1.267       .  A
O340       Cd343   2.481       .  S
C341        O349   1.264       .  A
C341        C521   1.478       .  S
C342        O347   1.264       .  A
C342        O345   1.266       .  A
C342        C988   1.486       .  S
Cd343       O350   2.448       .  S
Cd343       O349   2.437       .  S
Cd343       O348   2.465       .  S
Cd343       O344   2.491       .  S
Cd343       O347   2.473       .  S
Cd343       O345   2.499       .  S
C346        O350   1.265       .  A
C346        C449   1.477       .  S
C351        C352   1.533       .  S
C351        C357   1.539       .  S
C351        C355   1.549       .  S
C351        C628   1.530       .  S
C352        H359   1.087       .  S
C352        C353   1.364       .  D
C353        C425   1.484       .  S
C353        C354   1.541       .  S
C354        C358   1.535       .  S
C354        C356   1.545       .  S
C354        H360   1.111       .  S
C355        H361   1.084       .  S
C355        C356   1.376       .  D
C356        C364   1.482       .  S
C357        H362   1.087       .  S
C357        C358   1.359       .  D
C358        C545   1.479       .  S
O363        C366   1.270       .  A
O363       Cd368   2.504       .  S
C364        O373   1.263       .  A
C364        O369   1.268       .  A
O365        C371   1.269       .  A
O365       Cd368   2.493       .  S
C366        O374   1.265       .  A
C366        C412   1.481       .  S
C367        O372   1.266       .  A
C367        O370   1.267       .  A
C367       C1481   1.489       .  S
Cd368       O375   2.431       .  S
Cd368       O374   2.420       .  S
Cd368       O373   2.446       .  S
Cd368       O369   2.514       .  S
Cd368       O372   2.493       .  S
Cd368       O370   2.494       .  S
C371        O375   1.264       .  A
C371        C497   1.479       .  S
C376        C377   1.546       .  S
C376        C382   1.540       .  S
C376        C380   1.536       .  S
C376        C593   1.534       .  S
C377        H384   1.082       .  S
C377        C378   1.361       .  D
C378        C473   1.476       .  S
C378        C379   1.534       .  S
C379        C383   1.540       .  S
C379        C381   1.544       .  S
C379        H385   1.109       .  S
C380        H386   1.086       .  S
C380        C381   1.368       .  D
C381        C389   1.478       .  S
C382        H387   1.085       .  S
C382        C383   1.370       .  D
C383        C436   1.493       .  S
O388        C391   1.268       .  A
O388       Cd393   2.484       .  S
C389        O398   1.263       .  A
C389        O394   1.267       .  A
O390        C396   1.264       .  A
O390       Cd393   2.488       .  S
C391        O399   1.265       .  A
C391        C401   1.481       .  S
C392        O397   1.265       .  A
C392        O395   1.266       .  A
C392        C460   1.475       .  S
Cd393       O400   2.485       .  S
Cd393       O399   2.450       .  S
Cd393       O398   2.454       .  S
Cd393       O394   2.494       .  S
Cd393       O397   2.457       .  S
Cd393       O395   2.462       .  S
C396        O400   1.264       .  A
C396       C1372   1.483       .  S
C401        C402   1.405       .  A
C401        C406   1.405       .  A
C402        C403   1.401       .  A
C402        H415   1.083       .  S
C403        C404   1.404       .  A
C403        H416   1.083       .  S
C404        C407   1.488       .  S
C404        C405   1.408       .  A
C405        C406   1.397       .  A
C405        H417   1.082       .  S
C406        H418   1.083       .  S
C407        H419   1.083       .  S
C407        C408   1.348       .  D
C408        C409   1.490       .  S
C408        H420   1.086       .  S
C409        C410   1.403       .  A
C409        C414   1.411       .  A
C410        C411   1.393   1_554  A
C410        H421   1.083       .  S
C411        C412   1.404       .  A
C411        H422   1.083       .  S
C412        C413   1.405       .  A
C413        C414   1.405   1_556  A
C413        H423   1.083       .  S
C414        H424   1.080       .  S
C425        C426   1.404       .  A
C425        C430   1.402       .  A
C426        C427   1.396       .  A
C426        H439   1.083       .  S
C427        C428   1.404       .  A
C427        H440   1.084       .  S
C428        C431   1.492       .  S
C428        C429   1.411       .  A
C429        C430   1.401       .  A
C429        H441   1.080       .  S
C430        H442   1.083       .  S
C431        H443   1.085       .  S
C431        C432   1.349       .  D
C432        C433   1.490       .  S
C432        H444   1.083       .  S
C433        C434   1.403       .  A
C433        C438   1.408       .  A
C434        C435   1.399       .  A
C434        H445   1.084       .  S
C435        C436   1.406       .  A
C435        H446   1.081       .  S
C436        C437   1.406       .  A
C437        C438   1.398       .  A
C437        H447   1.082       .  S
C438        H448   1.081       .  S
C449        C450   1.406       .  A
C449        C454   1.404       .  A
C450        C451   1.401       .  A
C450        H463   1.083       .  S
C451        C452   1.402       .  A
C451        H464   1.083       .  S
C452        C455   1.477       .  S
C452        C453   1.404       .  A
C453        C454   1.395       .  A
C453        H465   1.083       .  S
C454        H466   1.083       .  S
C455        H467   1.086       .  S
C455        C456   1.343       .  D
C456        C457   1.479       .  S
C456        H468   1.087       .  S
C457        C458   1.402       .  A
C457        C462   1.406       .  A
C458        C459   1.397       .  A
C458        H469   1.084       .  S
C459        C460   1.405   1_455  A
C459        H470   1.083   1_455  S
C460        C461   1.404   1_655  A
C461        C462   1.397       .  A
C461        H471   1.083       .  S
C462        H472   1.083       .  S
C473        C474   1.400   1_655  A
C473        C478   1.402   1_655  A
C474        C475   1.396       .  A
C474        H487   1.082   1_455  S
C475        C476   1.405       .  A
C475        H488   1.083       .  S
C476        C479   1.489       .  S
C476        C477   1.410       .  A
C477        C478   1.401       .  A
C477        H489   1.081       .  S
C478        H490   1.083       .  S
C479        H491   1.087       .  S
C479        C480   1.347       .  D
C480        C481   1.487       .  S
C480        H492   1.084       .  S
C481        C482   1.404       .  A
C481        C486   1.408       .  A
C482        C483   1.401       .  A
C482        H493   1.082       .  S
C483        C484   1.404       .  A
C483        H494   1.083       .  S
C484        C485   1.403       .  A
C485        C486   1.396       .  A
C485        H495   1.083       .  S
C486        H496   1.082       .  S
C497        C498   1.406   1_655  A
C497        C502   1.404   1_655  A
C498        C499   1.403       .  A
C498        H511   1.083   1_455  S
C499        C500   1.404       .  A
C499        H512   1.083       .  S
C500        C503   1.488       .  S
C500        C501   1.407       .  A
C501        C502   1.394       .  A
C501        H513   1.082       .  S
C502        H514   1.083   1_455  S
C503        H515   1.084       .  S
C503        C504   1.348       .  D
C504        C505   1.488       .  S
C504        H516   1.086       .  S
C505        C506   1.402       .  A
C505        C510   1.411       .  A
C506        C507   1.392       .  A
C506        H517   1.084       .  S
C507        C508   1.403       .  A
C507        H518   1.083       .  S
C508        C509   1.405       .  A
C509        C510   1.405       .  A
C509        H519   1.083       .  S
C510        H520   1.080       .  S
C521        C522   1.406       .  A
C521        C526   1.403       .  A
C522        C523   1.403       .  A
C522        H535   1.083       .  S
C523        C524   1.405       .  A
C523        H536   1.083       .  S
C524        C527   1.488       .  S
C524        C525   1.407       .  A
C525        C526   1.393       .  A
C525        H537   1.082       .  S
C526        H538   1.083       .  S
C527        H539   1.084       .  S
C527        C528   1.349       .  D
C528        C529   1.487       .  S
C528        H540   1.086       .  S
C529        C530   1.403       .  A
C529        C534   1.409       .  A
C530        C531   1.393   1_554  A
C530        H541   1.084       .  S
C531        C532   1.403       .  A
C531        H542   1.083       .  S
C532        C533   1.406       .  A
C533        C534   1.404   1_556  A
C533        H543   1.083       .  S
C534        H544   1.081       .  S
C545        C546   1.403   1_655  A
C545        C550   1.401   1_655  A
C546        C547   1.403       .  A
C546        H559   1.083   1_455  S
C547        C548   1.406       .  A
C547        H560   1.082       .  S
C548        C551   1.492       .  S
C548        C549   1.409       .  A
C549        C550   1.399       .  A
C549        H561   1.082       .  S
C550        H562   1.083       .  S
C551        H563   1.085       .  S
C551        C552   1.349       .  D
C552        C553   1.492       .  S
C552        H564   1.086       .  S
C553        C554   1.405       .  A
C553        C558   1.409       .  A
C554        C555   1.399       .  A
C554        H565   1.083       .  S
C555        C556   1.401       .  A
C555        H566   1.078       .  S
C556        C557   1.406       .  A
C557        C558   1.401       .  A
C557        H567   1.083       .  S
C558        H568   1.081       .  S
C569        C570   1.403       .  A
C569        C574   1.405       .  A
C570        C571   1.400       .  A
C570        H583   1.083       .  S
C571        C572   1.405       .  A
C571        H584   1.083       .  S
C572        C575   1.489       .  S
C572        C573   1.407       .  A
C573        C574   1.396       .  A
C573        H585   1.081       .  S
C574        H586   1.083       .  S
C575        H587   1.082       .  S
C575        C576   1.350       .  D
C576        C577   1.491       .  S
C576        H588   1.084       .  S
C577        C578   1.404       .  A
C577        C582   1.409       .  A
C578        C579   1.396       .  A
C578        H589   1.083       .  S
C579        C580   1.406       .  A
C579        H590   1.082       .  S
C580        C581   1.406       .  A
C581        C582   1.400       .  A
C581        H591   1.078       .  S
C582        H592   1.079       .  S
C593        C594   1.411       .  A
C593        C598   1.411       .  A
C594        C595   1.403       .  A
C594        H607   1.083       .  S
C595        C596   1.403       .  A
C595        H608   1.083       .  S
C596        C599   1.491       .  S
C596        C597   1.405       .  A
C597        C598   1.397       .  A
C597        H609   1.083       .  S
C598        H610   1.077       .  S
C599        H611   1.086       .  S
C599        C600   1.348       .  D
C600        C601   1.486       .  S
C600        H612   1.087       .  S
C601        C602   1.399       .  A
C601        C606   1.408       .  A
C602        C603   1.391       .  A
C602        H613   1.084       .  S
C603        C604   1.409       .  A
C603        H614   1.084       .  S
C604        C605   1.411       .  A
C605        C606   1.409       .  A
C605        H615   1.079       .  S
C606        H616   1.082       .  S
C617        C618   1.412       .  A
C617        C622   1.407       .  A
C618        C619   1.409       .  A
C618        H631   1.079       .  S
C619        C620   1.406       .  A
C619        H632   1.083       .  S
C620        C623   1.494       .  S
C620        C621   1.405       .  A
C621        C622   1.391       .  A
C621        H633   1.082       .  S
C622        H634   1.084       .  S
C623        H635   1.086       .  S
C623        C624   1.348       .  D
C624        C625   1.485       .  S
C624        H636   1.086       .  S
C625        C626   1.398       .  A
C625        C630   1.409       .  A
C626        C627   1.388       .  A
C626        H637   1.084       .  S
C627        C628   1.407       .  A
C627        H638   1.084       .  S
C628        C629   1.413       .  A
C629        C630   1.412       .  A
C629        H639   1.080       .  S
C630        H640   1.082       .  S
C641        C642   1.405       .  A
C641        C646   1.403       .  A
C642        C643   1.396       .  A
C642        H655   1.083       .  S
C643        C644   1.403       .  A
C643        H656   1.084       .  S
C644        C647   1.489       .  S
C644        C645   1.410       .  A
C645        C646   1.401       .  A
C645        H657   1.081       .  S
C646        H658   1.083       .  S
C647        H659   1.085       .  S
C647        C648   1.348       .  D
C648        C649   1.489       .  S
C648        H660   1.084       .  S
C649        C650   1.404       .  A
C649        C654   1.409       .  A
C650        C651   1.398       .  A
C650        H661   1.083       .  S
C651        C652   1.401       .  A
C651        H662   1.079       .  S
C652        C653   1.404       .  A
C653        C654   1.398       .  A
C653        H663   1.083       .  S
C654        H664   1.081       .  S
C665        C666   1.402       .  A
C665        C670   1.405       .  A
C666        C667   1.395       .  A
C666        H679   1.083       .  S
C667        C668   1.404   1_556  A
C667        H680   1.083   1_556  S
C668        C671   1.490       .  S
C668        C669   1.411   1_554  A
C669        C670   1.402       .  A
C669        H681   1.080   1_556  S
C670        H682   1.083       .  S
C671        H683   1.086       .  S
C671        C672   1.348       .  D
C672        C673   1.487       .  S
C672        H684   1.083       .  S
C673        C674   1.404       .  A
C673        C678   1.407       .  A
C674        C675   1.401       .  A
C674        H685   1.083       .  S
C675        C676   1.405       .  A
C675        H686   1.083       .  S
C676        C677   1.404       .  A
C677        C678   1.396       .  A
C677        H687   1.083       .  S
C678        H688   1.082       .  S
C689        C690   1.407       .  A
C689        C694   1.411       .  A
C690        C691   1.387       .  A
C690        H703   1.084       .  S
C691        C692   1.398       .  A
C691        H704   1.084       .  S
C692        C695   1.484       .  S
C692        C693   1.409       .  A
C693        C694   1.409       .  A
C693        H705   1.082       .  S
C694        H706   1.079       .  S
C695        H707   1.087       .  S
C695        C696   1.346       .  D
C696        C697   1.488       .  S
C696        H708   1.085       .  S
C697        C698   1.403       .  A
C697        C702   1.405       .  A
C698        C699   1.405       .  A
C698        H709   1.083       .  S
C699        C700   1.412       .  A
C699        H710   1.078       .  S
C700        C701   1.407       .  A
C701        C702   1.391       .  A
C701        H711   1.084       .  S
C702        H712   1.083       .  S
C713        C714   1.406       .  A
C713        C718   1.407       .  A
C714        C715   1.400       .  A
C714        H727   1.078       .  S
C715        C716   1.403       .  A
C715        H728   1.083       .  S
C716        C719   1.488       .  S
C716        C717   1.407       .  A
C717        C718   1.398       .  A
C717        H729   1.081       .  S
C718        H730   1.082       .  S
C719        H731   1.084       .  S
C719        C720   1.348       .  D
C720        C721   1.489       .  S
C720        H732   1.086       .  S
C721        C722   1.403       .  A
C721        C726   1.409       .  A
C722        C723   1.396       .  A
C722        H733   1.083       .  S
C723        C724   1.405   1_455  A
C723        H734   1.083   1_455  S
C724        C725   1.403   1_655  A
C725        C726   1.402       .  A
C725        H735   1.079   1_455  S
C726        H736   1.081       .  S
C737        C738   1.405   1_655  A
C737        C742   1.405   1_655  A
C738        C739   1.395       .  A
C738        H751   1.083   1_455  S
C739        C740   1.403       .  A
C739        H752   1.084       .  S
C740        C743   1.486       .  S
C740        C741   1.408       .  A
C741        C742   1.402       .  A
C741        H753   1.081       .  S
C742        H754   1.083   1_455  S
C743        H755   1.086       .  S
C743        C744   1.348       .  D
C744        C745   1.487       .  S
C744        H756   1.085       .  S
C745        C746   1.405       .  A
C745        C750   1.407       .  A
C746        C747   1.402       .  A
C746        H757   1.083       .  S
C747        C748   1.406       .  A
C747        H758   1.083       .  S
C748        C749   1.403       .  A
C749        C750   1.395       .  A
C749        H759   1.083       .  S
C750        H760   1.082       .  S
C761        C762   1.409       .  A
C761        C766   1.411       .  A
C762        C763   1.398       .  A
C762        H775   1.083       .  S
C763        C764   1.403       .  A
C763        H776   1.084       .  S
C764        C767   1.492       .  S
C764        C765   1.408       .  A
C765        C766   1.400       .  A
C765        H777   1.080       .  S
C766        H778   1.078       .  S
C767        H779   1.083       .  S
C767        C768   1.350       .  D
C768        C769   1.494       .  S
C768        H780   1.084       .  S
C769        C770   1.403       .  A
C769        C774   1.409       .  A
C770        C771   1.399       .  A
C770        H781   1.083       .  S
C771        C772   1.410       .  A
C771        H782   1.080       .  S
C772        C773   1.410       .  A
C773        C774   1.401       .  A
C773        H783   1.082       .  S
C774        H784   1.080       .  S
C785        C786   1.402   1_655  A
C785        C790   1.405   1_655  A
C786        C787   1.397       .  A
C786        H799   1.083       .  S
C787        C788   1.404       .  A
C787        H800   1.083       .  S
C788        C791   1.490       .  S
C788        C789   1.410       .  A
C789        C790   1.406       .  A
C789        H801   1.082       .  S
C790        H802   1.083   1_455  S
C791        H803   1.087       .  S
C791        C792   1.348       .  D
C792        C793   1.490       .  S
C792        H804   1.086       .  S
C793        C794   1.403       .  A
C793        C798   1.409       .  A
C794        C795   1.398       .  A
C794        H805   1.083       .  S
C795        C796   1.405       .  A
C795        H806   1.083       .  S
C796        C797   1.403       .  A
C797        C798   1.404       .  A
C797        H807   1.081       .  S
C798        H808   1.083       .  S
C809        C810   1.400       .  A
C809        C814   1.403       .  A
C810        C811   1.397       .  A
C810        H823   1.077       .  S
C811        C812   1.405       .  A
C811        H824   1.083       .  S
C812        C815   1.495       .  S
C812        C813   1.412       .  A
C813        C814   1.401       .  A
C813        H825   1.079       .  S
C814        H826   1.083       .  S
C815        H827   1.085       .  S
C815        C816   1.348       .  D
C816        C817   1.490       .  S
C816        H828   1.082       .  S
C817        C818   1.401       .  A
C817        C822   1.410       .  A
C818        C819   1.394       .  A
C818        H829   1.084       .  S
C819        C820   1.407       .  A
C819        H830   1.083       .  S
C820        C821   1.405       .  A
C821        C822   1.404       .  A
C821        H831   1.081       .  S
C822        H832   1.081       .  S
C833        C834   1.405       .  A
C833        C838   1.404       .  A
C834        C835   1.402       .  A
C834        H847   1.083       .  S
C835        C836   1.405       .  A
C835        H848   1.083       .  S
C836        C839   1.488       .  S
C836        C837   1.407       .  A
C837        C838   1.395       .  A
C837        H849   1.082       .  S
C838        H850   1.083       .  S
C839        H851   1.083       .  S
C839        C840   1.348       .  D
C840        C841   1.488       .  S
C840        H852   1.086       .  S
C841        C842   1.403       .  A
C841        C846   1.410       .  A
C842        C843   1.394       .  A
C842        H853   1.084       .  S
C843        C844   1.403   1_455  A
C843        H854   1.083   1_455  S
C844        C845   1.405   1_655  A
C845        C846   1.402       .  A
C845        H855   1.083   1_455  S
C846        H856   1.080       .  S
C857        C858   1.405       .  A
C857        C862   1.406       .  A
C858        C859   1.396       .  A
C858        H871   1.083       .  S
C859        C860   1.404   1_556  A
C859        H872   1.083   1_556  S
C860        C863   1.493       .  S
C860        C861   1.411   1_554  A
C861        C862   1.406       .  A
C861        H873   1.081   1_556  S
C862        H874   1.083       .  S
C863        H875   1.086       .  S
C863        C864   1.350       .  D
C864        C865   1.493       .  S
C864        H876   1.084       .  S
C865        C866   1.406       .  A
C865        C870   1.408       .  A
C866        C867   1.404       .  A
C866        H877   1.083       .  S
C867        C868   1.406       .  A
C867        H878   1.083       .  S
C868        C869   1.406       .  A
C869        C870   1.399       .  A
C869        H879   1.083       .  S
C870        H880   1.082       .  S
C881        C882   1.406       .  A
C881        C886   1.405       .  A
C882        C883   1.402       .  A
C882        H895   1.083       .  S
C883        C884   1.408       .  A
C883        H896   1.083       .  S
C884        C887   1.504       .  S
C884        C885   1.412       .  A
C885        C886   1.405       .  A
C885        H897   1.079       .  S
C886        H898   1.083       .  S
C887        H899   1.083       .  S
C887        C888   1.355       .  D
C888        C889   1.503       .  S
C888        H900   1.082       .  S
C889        C890   1.408       .  A
C889        C894   1.411       .  A
C890        C891   1.402       .  A
C890        H901   1.083       .  S
C891        C892   1.405       .  A
C891        H902   1.083       .  S
C892        C893   1.407       .  A
C893        C894   1.405       .  A
C893        H903   1.083       .  S
C894        H904   1.080       .  S
C905        C906   1.405       .  A
C905        C910   1.407       .  A
C906        C907   1.401       .  A
C906        H919   1.083       .  S
C907        C908   1.406       .  A
C907        H920   1.083       .  S
C908        C911   1.498       .  S
C908        C909   1.411       .  A
C909        C910   1.403       .  A
C909        H921   1.080       .  S
C910        H922   1.083       .  S
C911        H923   1.083       .  S
C911        C912   1.352       .  D
C912        C913   1.499       .  S
C912        H924   1.084       .  S
C913        C914   1.405       .  A
C913        C918   1.412       .  A
C914        C915   1.399       .  A
C914        H925   1.083       .  S
C915        C916   1.405       .  A
C915        H926   1.083       .  S
C916        C917   1.407       .  A
C917        C918   1.406       .  A
C917        H927   1.083       .  S
C918        H928   1.080       .  S
C929        C930   1.404       .  A
C929        C934   1.406       .  A
C930        C931   1.397   1_556  A
C930        H943   1.083       .  S
C931        C932   1.405       .  A
C931        H944   1.083       .  S
C932        C935   1.496       .  S
C932        C933   1.411       .  A
C933        C934   1.406   1_554  A
C933        H945   1.080       .  S
C934        H946   1.083       .  S
C935        H947   1.085       .  S
C935        C936   1.351       .  D
C936        C937   1.496       .  S
C936        H948   1.084       .  S
C937        C938   1.407       .  A
C937        C942   1.409       .  A
C938        C939   1.405       .  A
C938        H949   1.083       .  S
C939        C940   1.406       .  A
C939        H950   1.083       .  S
C940        C941   1.405       .  A
C941        C942   1.399       .  A
C941        H951   1.083       .  S
C942        H952   1.081       .  S
C953        C954   1.404       .  A
C953        C958   1.405       .  A
C954        C955   1.396       .  A
C954        H967   1.083       .  S
C955        C956   1.403       .  A
C955        H968   1.083       .  S
C956        C959   1.489       .  S
C956        C957   1.410       .  A
C957        C958   1.403       .  A
C957        H969   1.081       .  S
C958        H970   1.083       .  S
C959        H971   1.085       .  S
C959        C960   1.348       .  D
C960        C961   1.489       .  S
C960        H972   1.085       .  S
C961        C962   1.405       .  A
C961        C966   1.409       .  A
C962        C963   1.401       .  A
C962        H973   1.083       .  S
C963        C964   1.403       .  A
C963        H974   1.083       .  S
C964        C965   1.404       .  A
C965        C966   1.397       .  A
C965        H975   1.083       .  S
C966        H976   1.081       .  S
C977        C978   1.405       .  A
C977        C982   1.405       .  A
C978        C979   1.400       .  A
C978        H991   1.083       .  S
C979        C980   1.406       .  A
C979        H992   1.083       .  S
C980        C983   1.496       .  S
C980        C981   1.410       .  A
C981        C982   1.402       .  A
C981        H993   1.080       .  S
C982        H994   1.083       .  S
C983        H995   1.083       .  S
C983        C984   1.352       .  D
C984        C985   1.497       .  S
C984        H996   1.083       .  S
C985        C986   1.407       .  A
C985        C990   1.410       .  A
C986        C987   1.402       .  A
C986        H997   1.083       .  S
C987        C988   1.405       .  A
C987        H998   1.083       .  S
C988        C989   1.406       .  A
C989        C990   1.400       .  A
C989        H999   1.083       .  S
C990       H1000   1.080       .  S
C1001      C1002   1.404       .  A
C1001      C1006   1.402       .  A
C1002      C1003   1.398       .  A
C1002      H1015   1.083       .  S
C1003      C1004   1.405       .  A
C1003      H1016   1.083       .  S
C1004      C1007   1.492       .  S
C1004      C1005   1.411       .  A
C1005      C1006   1.397       .  A
C1005      H1017   1.079       .  S
C1006      H1018   1.083       .  S
C1007      H1019   1.084       .  S
C1007      C1008   1.348       .  D
C1008      C1009   1.486   1_565  S
C1008      H1020   1.082       .  S
C1009      C1010   1.403       .  A
C1009      C1014   1.409       .  A
C1010      C1011   1.394       .  A
C1010      H1021   1.083       .  S
C1011      C1012   1.403       .  A
C1011      H1022   1.083       .  S
C1012      C1013   1.404       .  A
C1013      C1014   1.399       .  A
C1013      H1023   1.083       .  S
C1014      H1024   1.081       .  S
C1025      C1026   1.402       .  A
C1025      C1030   1.406       .  A
C1026      C1027   1.394       .  A
C1026      H1039   1.083       .  S
C1027      C1028   1.403       .  A
C1027      H1040   1.084       .  S
C1028      C1031   1.491   1_545  S
C1028      C1029   1.411       .  A
C1029      C1030   1.409       .  A
C1029      H1041   1.082       .  S
C1030      H1042   1.083       .  S
C1031      H1043   1.085       .  S
C1031      C1032   1.350       .  D
C1032      C1033   1.497       .  S
C1032      H1044   1.085       .  S
C1033      C1034   1.409       .  A
C1033      C1038   1.409       .  A
C1034      C1035   1.407       .  A
C1034      H1045   1.083       .  S
C1035      C1036   1.404       .  A
C1035      H1046   1.083       .  S
C1036      C1037   1.404       .  A
C1037      C1038   1.395       .  A
C1037      H1047   1.083       .  S
C1038      H1048   1.081       .  S
C1049      C1050   1.405       .  A
C1049      C1054   1.406       .  A
C1050      C1051   1.399       .  A
C1050      H1063   1.083       .  S
C1051      C1052   1.406       .  A
C1051      H1064   1.083       .  S
C1052      C1055   1.497       .  S
C1052      C1053   1.411       .  A
C1053      C1054   1.404       .  A
C1053      H1065   1.080       .  S
C1054      H1066   1.083       .  S
C1055      H1067   1.084       .  S
C1055      C1056   1.352       .  D
C1056      C1057   1.497       .  S
C1056      H1068   1.083       .  S
C1057      C1058   1.406       .  A
C1057      C1062   1.410       .  A
C1058      C1059   1.402       .  A
C1058      H1069   1.083       .  S
C1059      C1060   1.406       .  A
C1059      H1070   1.083       .  S
C1060      C1061   1.406       .  A
C1061      C1062   1.402       .  A
C1061      H1071   1.083       .  S
C1062      H1072   1.080       .  S
C1073      C1074   1.403       .  A
C1073      C1078   1.405       .  A
C1074      C1075   1.394       .  A
C1074      H1087   1.083       .  S
C1075      C1076   1.403       .  A
C1075      H1088   1.083       .  S
C1076      C1079   1.483       .  S
C1076      C1077   1.408       .  A
C1077      C1078   1.400       .  A
C1077      H1089   1.081       .  S
C1078      H1090   1.083       .  S
C1079      H1091   1.086       .  S
C1079      C1080   1.346       .  D
C1080      C1081   1.484   1_565  S
C1080      H1092   1.085       .  S
C1081      C1082   1.404       .  A
C1081      C1086   1.406       .  A
C1082      C1083   1.401       .  A
C1082      H1093   1.083       .  S
C1083      C1084   1.405       .  A
C1083      H1094   1.083       .  S
C1084      C1085   1.404       .  A
C1085      C1086   1.394       .  A
C1085      H1095   1.083       .  S
C1086      H1096   1.082       .  S
C1097      C1098   1.402       .  A
C1097      C1102   1.405       .  A
C1098      C1099   1.392       .  A
C1098      H1111   1.083       .  S
C1099      C1100   1.403   1_556  A
C1099      H1112   1.084   1_556  S
C1100      C1103   1.488       .  S
C1100      C1101   1.411   1_554  A
C1101      C1102   1.404       .  A
C1101      H1113   1.080   1_556  S
C1102      H1114   1.083       .  S
C1103      H1115   1.086       .  S
C1103      C1104   1.347       .  D
C1104      C1105   1.486       .  S
C1104      H1116   1.083       .  S
C1105      C1106   1.404       .  A
C1105      C1110   1.407       .  A
C1106      C1107   1.401       .  A
C1106      H1117   1.083       .  S
C1107      C1108   1.406       .  A
C1107      H1118   1.083       .  S
C1108      C1109   1.404       .  A
C1109      C1110   1.394       .  A
C1109      H1119   1.083       .  S
C1110      H1120   1.082       .  S
C1121      C1122   1.398       .  A
C1121      C1126   1.404       .  A
C1122      C1123   1.395       .  A
C1122      H1135   1.084       .  S
C1123      C1124   1.406       .  A
C1123      H1136   1.083       .  S
C1124      C1127   1.492   1_545  S
C1124      C1125   1.412       .  A
C1125      C1126   1.407       .  A
C1125      H1137   1.081       .  S
C1126      H1138   1.083       .  S
C1127      H1139   1.087       .  S
C1127      C1128   1.350       .  D
C1128      C1129   1.492       .  S
C1128      H1140   1.084       .  S
C1129      C1130   1.407       .  A
C1129      C1134   1.406       .  A
C1130      C1131   1.408       .  A
C1130      H1141   1.082       .  S
C1131      C1132   1.406       .  A
C1131      H1142   1.083       .  S
C1132      C1133   1.404       .  A
C1133      C1134   1.393       .  A
C1133      H1143   1.083       .  S
C1134      H1144   1.082       .  S
C1145      C1146   1.403       .  A
C1145      C1150   1.404       .  A
C1146      C1147   1.399       .  A
C1146      H1159   1.083       .  S
C1147      C1148   1.405       .  A
C1147      H1160   1.083       .  S
C1148      C1151   1.492       .  S
C1148      C1149   1.410       .  A
C1149      C1150   1.398       .  A
C1149      H1161   1.080       .  S
C1150      H1162   1.083       .  S
C1151      H1163   1.084       .  S
C1151      C1152   1.349       .  D
C1152      C1153   1.490       .  S
C1152      H1164   1.084       .  S
C1153      C1154   1.403       .  A
C1153      C1158   1.410       .  A
C1154      C1155   1.396       .  A
C1154      H1165   1.083       .  S
C1155      C1156   1.404       .  A
C1155      H1166   1.083       .  S
C1156      C1157   1.404       .  A
C1157      C1158   1.401       .  A
C1157      H1167   1.083       .  S
C1158      H1168   1.081       .  S
C1169      C1170   1.406       .  A
C1169      C1174   1.412       .  A
C1170      C1171   1.387       .  A
C1170      H1183   1.084       .  S
C1171      C1172   1.400       .  A
C1171      H1184   1.084       .  S
C1172      C1175   1.486       .  S
C1172      C1173   1.409       .  A
C1173      C1174   1.410       .  A
C1173      H1185   1.081       .  S
C1174      H1186   1.079       .  S
C1175      H1187   1.088       .  S
C1175      C1176   1.348       .  D
C1176      C1177   1.489       .  S
C1176      H1188   1.084       .  S
C1177      C1178   1.405       .  A
C1177      C1182   1.403       .  A
C1178      C1179   1.409       .  A
C1178      H1189   1.083       .  S
C1179      C1180   1.412       .  A
C1179      H1190   1.080       .  S
C1180      C1181   1.407       .  A
C1181      C1182   1.388       .  A
C1181      H1191   1.083       .  S
C1182      H1192   1.083       .  S
C1193      C1194   1.405       .  A
C1193      C1198   1.405       .  A
C1194      C1195   1.400       .  A
C1194      H1207   1.083       .  S
C1195      C1196   1.406       .  A
C1195      H1208   1.083       .  S
C1196      C1199   1.497       .  S
C1196      C1197   1.411       .  A
C1197      C1198   1.403       .  A
C1197      H1209   1.080       .  S
C1198      H1210   1.083       .  S
C1199      H1211   1.082       .  S
C1199      C1200   1.352       .  D
C1200      C1201   1.498       .  S
C1200      H1212   1.083       .  S
C1201      C1202   1.406       .  A
C1201      C1206   1.412       .  A
C1202      C1203   1.399       .  A
C1202      H1213   1.083       .  S
C1203      C1204   1.404       .  A
C1203      H1214   1.083       .  S
C1204      C1205   1.406       .  A
C1205      C1206   1.403       .  A
C1205      H1215   1.083       .  S
C1206      H1216   1.079       .  S
C1217      C1218   1.409       .  A
C1217      C1222   1.412       .  A
C1218      C1219   1.399       .  A
C1218      H1231   1.083       .  S
C1219      C1220   1.403       .  A
C1219      H1232   1.083       .  S
C1220      C1223   1.492       .  S
C1220      C1221   1.407       .  A
C1221      C1222   1.400       .  A
C1221      H1233   1.081       .  S
C1222      H1234   1.076       .  S
C1223      H1235   1.085       .  S
C1223      C1224   1.350       .  D
C1224      C1225   1.492       .  S
C1224      H1236   1.085       .  S
C1225      C1226   1.404       .  A
C1225      C1230   1.405       .  A
C1226      C1227   1.402       .  A
C1226      H1237   1.083       .  S
C1227      C1228   1.410       .  A
C1227      H1238   1.083       .  S
C1228      C1229   1.413       .  A
C1229      C1230   1.397       .  A
C1229      H1239   1.075       .  S
C1230      H1240   1.081       .  S
C1241      C1242   1.407       .  A
C1241      C1246   1.408       .  A
C1242      C1243   1.404       .  A
C1242      H1255   1.078       .  S
C1243      C1244   1.404       .  A
C1243      H1256   1.083       .  S
C1244      C1247   1.491       .  S
C1244      C1245   1.405       .  A
C1245      C1246   1.397       .  A
C1245      H1257   1.083       .  S
C1246      H1258   1.082       .  S
C1247      H1259   1.086       .  S
C1247      C1248   1.346       .  D
C1248      C1249   1.484       .  S
C1248      H1260   1.087       .  S
C1249      C1250   1.399       .  A
C1249      C1254   1.409       .  A
C1250      C1251   1.391       .  A
C1250      H1261   1.084       .  S
C1251      C1252   1.406       .  A
C1251      H1262   1.083       .  S
C1252      C1253   1.408       .  A
C1253      C1254   1.410       .  A
C1253      H1263   1.083       .  S
C1254      H1264   1.083       .  S
C1265      C1266   1.405       .  A
C1265      C1270   1.405       .  A
C1266      C1267   1.403       .  A
C1266      H1279   1.083       .  S
C1267      C1268   1.408       .  A
C1267      H1280   1.083       .  S
C1268      C1271   1.500       .  S
C1268      C1269   1.411       .  A
C1269      C1270   1.401       .  A
C1269      H1281   1.079       .  S
C1270      H1282   1.083       .  S
C1271      H1283   1.083       .  S
C1271      C1272   1.354       .  D
C1272      C1273   1.498       .  S
C1272      H1284   1.082       .  S
C1273      C1274   1.407       .  A
C1273      C1278   1.410       .  A
C1274      C1275   1.401       .  A
C1274      H1285   1.083       .  S
C1275      C1276   1.405       .  A
C1275      H1286   1.083       .  S
C1276      C1277   1.407       .  A
C1277      C1278   1.404       .  A
C1277      H1287   1.083       .  S
C1278      H1288   1.080       .  S
C1289      C1290   1.405       .  A
C1289      C1294   1.406       .  A
C1290      C1291   1.394       .  A
C1290      H1303   1.083       .  S
C1291      C1292   1.402   1_556  A
C1291      H1304   1.084   1_556  S
C1292      C1295   1.487       .  S
C1292      C1293   1.409   1_554  A
C1293      C1294   1.404       .  A
C1293      H1305   1.082   1_556  S
C1294      H1306   1.083       .  S
C1295      H1307   1.083       .  S
C1295      C1296   1.349       .  D
C1296      C1297   1.493       .  S
C1296      H1308   1.085       .  S
C1297      C1298   1.406       .  A
C1297      C1302   1.409       .  A
C1298      C1299   1.403       .  A
C1298      H1309   1.083       .  S
C1299      C1300   1.405       .  A
C1299      H1310   1.083       .  S
C1300      C1301   1.404       .  A
C1301      C1302   1.396       .  A
C1301      H1311   1.083       .  S
C1302      H1312   1.080       .  S
C1313      C1314   1.409       .  A
C1313      C1318   1.411       .  A
C1314      C1315   1.401       .  A
C1314      H1327   1.083       .  S
C1315      C1316   1.404       .  A
C1315      H1328   1.083       .  S
C1316      C1319   1.493       .  S
C1316      C1317   1.407       .  A
C1317      C1318   1.399       .  A
C1317      H1329   1.081       .  S
C1318      H1330   1.078       .  S
C1319      H1331   1.083       .  S
C1319      C1320   1.351       .  D
C1320      C1321   1.496       .  S
C1320      H1332   1.084       .  S
C1321      C1322   1.405       .  A
C1321      C1326   1.408       .  A
C1322      C1323   1.400       .  A
C1322      H1333   1.083       .  S
C1323      C1324   1.408       .  A
C1323      H1334   1.083       .  S
C1324      C1325   1.411       .  A
C1325      C1326   1.400       .  A
C1325      H1335   1.076       .  S
C1326      H1336   1.079       .  S
C1337      C1338   1.406       .  A
C1337      C1342   1.409       .  A
C1338      C1339   1.402       .  A
C1338      H1351   1.077       .  S
C1339      C1340   1.404       .  A
C1339      H1352   1.083       .  S
C1340      C1343   1.494   1_545  S
C1340      C1341   1.408       .  A
C1341      C1342   1.399       .  A
C1341      H1353   1.081       .  S
C1342      H1354   1.082       .  S
C1343      H1355   1.083       .  S
C1343      C1344   1.350       .  D
C1344      C1345   1.497       .  S
C1344      H1356   1.085       .  S
C1345      C1346   1.405       .  A
C1345      C1350   1.413       .  A
C1346      C1347   1.397       .  A
C1346      H1357   1.083       .  S
C1347      C1348   1.404       .  A
C1347      H1358   1.083       .  S
C1348      C1349   1.403       .  A
C1349      C1350   1.405       .  A
C1349      H1359   1.083       .  S
C1350      H1360   1.079       .  S
C1361      C1362   1.405       .  A
C1361      C1366   1.405       .  A
C1362      C1363   1.399       .  A
C1362      H1375   1.083       .  S
C1363      C1364   1.405       .  A
C1363      H1376   1.083       .  S
C1364      C1367   1.493       .  S
C1364      C1365   1.410       .  A
C1365      C1366   1.400       .  A
C1365      H1377   1.080       .  S
C1366      H1378   1.083       .  S
C1367      H1379   1.084       .  S
C1367      C1368   1.350       .  D
C1368      C1369   1.492       .  S
C1368      H1380   1.084       .  S
C1369      C1370   1.405       .  A
C1369      C1374   1.410       .  A
C1370      C1371   1.399       .  A
C1370      H1381   1.083       .  S
C1371      C1372   1.404       .  A
C1371      H1382   1.083       .  S
C1372      C1373   1.406       .  A
C1373      C1374   1.401       .  A
C1373      H1383   1.083       .  S
C1374      H1384   1.081       .  S
C1385      C1386   1.405       .  A
C1385      C1390   1.404       .  A
C1386      C1387   1.399       .  A
C1386      H1399   1.083       .  S
C1387      C1388   1.403       .  A
C1387      H1400   1.083       .  S
C1388      C1391   1.484       .  S
C1388      C1389   1.408       .  A
C1389      C1390   1.394       .  A
C1389      H1401   1.082       .  S
C1390      H1402   1.083       .  S
C1391      H1403   1.083       .  S
C1391      C1392   1.346       .  D
C1392      C1393   1.486       .  S
C1392      H1404   1.085       .  S
C1393      C1394   1.402   1_565  A
C1393      C1398   1.411   1_565  A
C1394      C1395   1.391       .  A
C1394      H1405   1.084       .  S
C1395      C1396   1.403       .  A
C1395      H1406   1.083       .  S
C1396      C1397   1.404       .  A
C1397      C1398   1.402       .  A
C1397      H1407   1.083       .  S
C1398      H1408   1.080       .  S
C1409      C1410   1.409       .  A
C1409      C1414   1.412       .  A
C1410      C1411   1.401       .  A
C1410      H1423   1.083       .  S
C1411      C1412   1.403       .  A
C1411      H1424   1.083       .  S
C1412      C1415   1.489       .  S
C1412      C1413   1.405       .  A
C1413      C1414   1.397       .  A
C1413      H1425   1.082       .  S
C1414      H1426   1.075       .  S
C1415      H1427   1.085       .  S
C1415      C1416   1.350       .  D
C1416      C1417   1.491       .  S
C1416      H1428   1.086       .  S
C1417      C1418   1.404       .  A
C1417      C1422   1.406       .  A
C1418      C1419   1.400       .  A
C1418      H1429   1.083       .  S
C1419      C1420   1.409       .  A
C1419      H1430   1.083       .  S
C1420      C1421   1.412       .  A
C1421      C1422   1.398       .  A
C1421      H1431   1.075       .  S
C1422      H1432   1.081       .  S
C1433      C1434   1.405       .  A
C1433      C1438   1.403       .  A
C1434      C1435   1.397       .  A
C1434      H1447   1.083       .  S
C1435      C1436   1.403       .  A
C1435      H1448   1.083       .  S
C1436      C1439   1.491   1_545  S
C1436      C1437   1.410       .  A
C1437      C1438   1.403       .  A
C1437      H1449   1.081       .  S
C1438      H1450   1.078       .  S
C1439      H1451   1.084       .  S
C1439      C1440   1.349       .  D
C1440      C1441   1.493       .  S
C1440      H1452   1.084       .  S
C1441      C1442   1.406       .  A
C1441      C1446   1.409       .  A
C1442      C1443   1.401       .  A
C1442      H1453   1.083       .  S
C1443      C1444   1.401       .  A
C1443      H1454   1.078       .  S
C1444      C1445   1.406       .  A
C1445      C1446   1.399       .  A
C1445      H1455   1.083       .  S
C1446      H1456   1.080       .  S
C1457      C1458   1.405       .  A
C1457      C1462   1.404       .  A
C1458      C1459   1.396       .  A
C1458      H1471   1.083       .  S
C1459      C1460   1.403       .  A
C1459      H1472   1.083       .  S
C1460      C1463   1.485       .  S
C1460      C1461   1.407       .  A
C1461      C1462   1.401       .  A
C1461      H1473   1.082       .  S
C1462      H1474   1.078       .  S
C1463      H1475   1.085       .  S
C1463      C1464   1.348       .  D
C1464      C1465   1.489       .  S
C1464      H1476   1.085       .  S
C1465      C1466   1.405       .  A
C1465      C1470   1.408       .  A
C1466      C1467   1.401       .  A
C1466      H1477   1.083       .  S
C1467      C1468   1.404       .  A
C1467      H1478   1.078       .  S
C1468      C1469   1.405       .  A
C1469      C1470   1.395       .  A
C1469      H1479   1.083       .  S
C1470      H1480   1.081       .  S
C1481      C1482   1.406       .  A
C1481      C1486   1.406       .  A
C1482      C1483   1.402       .  A
C1482      H1495   1.083       .  S
C1483      C1484   1.405       .  A
C1483      H1496   1.083       .  S
C1484      C1487   1.496       .  S
C1484      C1485   1.410       .  A
C1485      C1486   1.402       .  A
C1485      H1497   1.081       .  S
C1486      H1498   1.083       .  S
C1487      H1499   1.083       .  S
C1487      C1488   1.351       .  D
C1488      C1489   1.498       .  S
C1488      H1500   1.085       .  S
C1489      C1490   1.405       .  A
C1489      C1494   1.412       .  A
C1490      C1491   1.398       .  A
C1490      H1501   1.083       .  S
C1491      C1492   1.404       .  A
C1491      H1502   1.083       .  S
C1492      C1493   1.406       .  A
C1493      C1494   1.405       .  A
C1493      H1503   1.083       .  S
C1494      H1504   1.080       .  S
C1505      C1506   1.405       .  A
C1505      C1510   1.403       .  A
C1506      C1507   1.400       .  A
C1506      H1519   1.083       .  S
C1507      C1508   1.403       .  A
C1507      H1520   1.083       .  S
C1508      C1511   1.481   1_545  S
C1508      C1509   1.406       .  A
C1509      C1510   1.391       .  A
C1509      H1521   1.082       .  S
C1510      H1522   1.083       .  S
C1511      H1523   1.083       .  S
C1511      C1512   1.346       .  D
C1512      C1513   1.484       .  S
C1512      H1524   1.086       .  S
C1513      C1514   1.403       .  A
C1513      C1518   1.410       .  A
C1514      C1515   1.393       .  A
C1514      H1525   1.084       .  S
C1515      C1516   1.404       .  A
C1515      H1526   1.083       .  S
C1516      C1517   1.402       .  A
C1517      C1518   1.399       .  A
C1517      H1527   1.083       .  S
C1518      H1528   1.079       .  S
C1529      C1530   1.403       .  A
C1529      C1534   1.405       .  A
C1530      C1531   1.395       .  A
C1530      H1543   1.083       .  S
C1531      C1532   1.404   1_556  A
C1531      H1544   1.083   1_556  S
C1532      C1535   1.493       .  S
C1532      C1533   1.412       .  A
C1533      C1534   1.404   1_554  A
C1533      H1545   1.079       .  S
C1534      H1546   1.083       .  S
C1535      H1547   1.085       .  S
C1535      C1536   1.349       .  D
C1536      C1537   1.492       .  S
C1536      H1548   1.083       .  S
C1537      C1538   1.405       .  A
C1537      C1542   1.409       .  A
C1538      C1539   1.402       .  A
C1538      H1549   1.083       .  S
C1539      C1540   1.405       .  A
C1539      H1550   1.083       .  S
C1540      C1541   1.405       .  A
C1541      C1542   1.398       .  A
C1541      H1551   1.083       .  S
C1542      H1552   1.081       .  S
