geometry optimzed in LAMMPS
_audit_creation_date              2020-11-30 
_audit_creation_method            'lammps2cif' 
_symmetry_space_group_name_H-M    'P1' 
_symmetry_Int_Tables_number       1 
_symmetry_cell_setting            triclinic 
loop_ 
_symmetry_equiv_pos_as_xyz 
  x,y,z 
_cell_length_a                    37.3273443372117 
_cell_length_b                    40.53365412001743 
_cell_length_c                    56.390971417597875 
_cell_angle_alpha                 89.76328211356198 
_cell_angle_beta                  89.45330073201497 
_cell_angle_gamma                 90.1155280480055 
loop_ 
_atom_site_label 
_atom_site_type_symbol 
_atom_site_fract_x 
_atom_site_fract_y 
_atom_site_fract_z 
_atom_site_charge 
C1          C  0.05726791  0.36942785  0.51794113     0.03490
C2          C  0.04615101  0.34972314  0.49902512    -0.12660
C3          C  0.03299002  0.36399546  0.47839556     0.00990
C4          C  0.03244332  0.39824653  0.47588953    -0.11180
C5          C  0.04251388  0.41904584  0.49473330     0.03490
C6          C  0.05429512  0.40394756  0.51602537    -0.10600
H7          H  0.04740220  0.32305646  0.50037806     0.09080
H8          H  0.02391942  0.40794678  0.45902700     0.06610
H9          H  0.06060844  0.41853830  0.53141592     0.06460
N10         N  0.41442657  0.12118354  0.36837391    -0.26930
N11         N  0.40279601  0.14063068  0.38559013    -0.34780
C12         C  0.38220631  0.12304341  0.40062115     0.01410
C13         C  0.38099518  0.09092941  0.39273996     0.07440
C14         C  0.40181567  0.09039622  0.37229594    -0.05660
H15         H  0.37019254  0.13264453  0.41669706     0.08110
H16         H  0.40758455  0.06927593  0.36125089     0.09310
Cu17       Cu  0.41810884  0.18917462  0.39037613     0.44170
Cu18       Cu  0.44668486  0.13798597  0.34045111     0.41990
Cu19       Cu  0.46842194  0.22565256  0.34380044     0.43880
N20         N  0.44419200  0.23385353  0.39403495    -0.34310
N21         N  0.46324534  0.24720366  0.37664295    -0.28570
C22         C  0.48119146  0.27341522  0.38493301    -0.04670
C23         C  0.47308860  0.27664764  0.40878622     0.07550
C24         C  0.44923237  0.25136914  0.41392317     0.01350
H25         H  0.49984236  0.28813764  0.37456920     0.09000
H26         H  0.43827170  0.24489709  0.43115745     0.08080
N27         N  0.48029977  0.19628317  0.31508093    -0.35760
N28         N  0.47448486  0.16409944  0.31417747    -0.27940
C29         C  0.48922295  0.15232858  0.29403001    -0.03180
C30         C  0.50460780  0.17849713  0.28177496     0.05430
C31         C  0.49829725  0.20591545  0.29553061     0.03520
H32         H  0.48892532  0.12669288  0.28876654     0.08630
H33         H  0.00742662  0.23084949  0.29207350     0.07460
C34         C  0.03728568  0.37346222  0.96348846     0.03490
C35         C  0.06099217  0.35644473  0.97843469    -0.12660
C36         C  0.07219246  0.37017473  0.99977189     0.00990
C37         C  0.06562698  0.40353269  0.00413151    -0.11180
C38         C  0.04691913  0.42342809  0.98773512     0.03490
C39         C  0.03029621  0.40701977  0.96848447    -0.10600
H40         H  0.06881872  0.33133271  0.97454492     0.09080
H41         H  0.07415783  0.41294055  0.02099608     0.06610
H42         H  0.01050961  0.41951398  0.95808424     0.06460
N43         N  0.17940765  0.12460866  0.11015655    -0.26930
N44         N  0.18955781  0.14315893  0.09192737    -0.34780
C45         C  0.20698108  0.12437661  0.07607797     0.01410
C46         C  0.20768808  0.09243922  0.08455067     0.07440
C47         C  0.18994229  0.09325287  0.10619865    -0.05660
H48         H  0.21799595  0.13326135  0.05941647     0.08110
H49         H  0.18525849  0.07276597  0.11819901     0.09310
Cu50       Cu  0.17800988  0.19276223  0.08795131     0.44170
Cu51       Cu  0.15165102  0.14361781  0.13920498     0.41990
Cu52       Cu  0.13016301  0.23195028  0.13446581     0.43880
N53         N  0.15890953  0.24046812  0.08514387    -0.34310
N54         N  0.14108315  0.25513632  0.10245428    -0.28570
C55         C  0.12754635  0.28369585  0.09429189    -0.04670
C56         C  0.13775220  0.28728262  0.07078611     0.07550
C57         C  0.15726258  0.25927600  0.06549913     0.01350
H58         H  0.10907475  0.29916950  0.10406280     0.09000
H59         H  0.16676020  0.25176546  0.04816631     0.08080
N60         N  0.11542853  0.20190422  0.16268654    -0.35760
N61         N  0.12282616  0.17008859  0.16450551    -0.27940
C62         C  0.10697223  0.15808481  0.18427986    -0.03180
C63         C  0.08827912  0.18341794  0.19518208     0.05430
C64         C  0.09467641  0.21088825  0.18112288     0.03520
H65         H  0.10790759  0.13252263  0.18984427     0.08630
H66         H  0.08469784  0.23562587  0.18386002     0.07460
C67         C  0.27258021  0.00806234  0.01668734     0.03490
C68         C  0.28755293  0.02977970  0.00001032    -0.12660
C69         C  0.30867375  0.01815148  0.98124891     0.00990
C70         C  0.31375104  0.98409365  0.97880530    -0.11180
C71         C  0.29651948  0.96133971  0.99414638     0.03490
C72         C  0.27587092  0.97391406  0.01331214    -0.10600
H73         H  0.28292141  0.05602535  0.00191998     0.09080
H74         H  0.33167508  0.97573273  0.96494194     0.06610
H75         H  0.26242510  0.95768257  0.02578035     0.06460
N76         N  0.41627728  0.27221119  0.87182566    -0.26930
N77         N  0.40480764  0.25963718  0.89216613    -0.34780
C78         C  0.42114697  0.27482778  0.91007573     0.01410
C79         C  0.44531278  0.29750227  0.90087347     0.07440
C80         C  0.44099223  0.29573561  0.87642510    -0.05660
H81         H  0.41707151  0.26828392  0.92851156     0.08110
H82         H  0.45613037  0.30908490  0.86302613     0.09310
Cu83       Cu  0.37596695  0.21649652  0.89579345     0.44170
Cu84       Cu  0.39824897  0.25315873  0.83972494     0.41990
Cu85       Cu  0.37022001  0.16556503  0.84578638     0.43880
N86         N  0.36531117  0.16668550  0.89836739    -0.34310
N87         N  0.36543484  0.14692566  0.87989787    -0.28570
C88         C  0.35984530  0.11575146  0.88738618    -0.04670
C89         C  0.35567347  0.11585620  0.91198997     0.07670
C90         C  0.35950620  0.14887230  0.91809961     0.01350
H91         H  0.35923540  0.09498436  0.87554063     0.09000
H92         H  0.35774506  0.15955624  0.93559691     0.08080
N93         N  0.36224177  0.19478094  0.81607221    -0.35760
N94         N  0.37097259  0.22632565  0.81394981    -0.27940
C95         C  0.35642935  0.23828268  0.79390034    -0.03180
C96         C  0.33782181  0.21304333  0.78279630     0.05430
C97         C  0.34230833  0.18591757  0.79746777     0.03520
H98         H  0.35751126  0.26396811  0.78870487     0.08630
H99         H  0.33060739  0.16167505  0.79538212     0.07460
C100        C  0.31399358  0.00825501  0.46142043     0.03490
C101        C  0.30650676  0.02888912  0.48058388    -0.12660
C102        C  0.28691750  0.01731939  0.50022516     0.00990
C103        C  0.27916471  0.98331309  0.50171501    -0.11180
C104        C  0.28912291  0.96111439  0.48345527     0.03490
C105        C  0.30508152  0.97478982  0.46270850    -0.10600
H106        H  0.31523734  0.05434272  0.47969919     0.09080
H107        H  0.26493529  0.97472001  0.51727943     0.06610
H108        H  0.31037513  0.96022477  0.44711973     0.06460
N109        N  0.16002215  0.25839779  0.61053029    -0.26930
N110        N  0.14985236  0.23720174  0.59412702    -0.34780
C111        C  0.12793574  0.25242681  0.57890302     0.01410
C112        C  0.12397703  0.28482521  0.58590774     0.07440
C113        C  0.14501867  0.28797525  0.60589689    -0.05660
H114        H  0.11665429  0.24099694  0.56335031     0.08110
H115        H  0.14904371  0.31002323  0.61628999     0.09310
Cu116      Cu  0.16824963  0.18930016  0.59111308     0.44170
Cu117      Cu  0.19318826  0.24502905  0.63852306     0.41990
Cu118      Cu  0.22354417  0.15873574  0.63654152     0.43880
N119        N  0.19664131  0.14578848  0.58791873    -0.34310
N120        N  0.21797632  0.13462073  0.60461990    -0.28570
C121        C  0.23689621  0.10897791  0.59609582    -0.04670
C122        C  0.22679364  0.10358599  0.57280706     0.07550
C123        C  0.20109441  0.12746965  0.56835674     0.01350
H124        H  0.25825775  0.09694974  0.60560629     0.09000
H125        H  0.18793934  0.13240048  0.55170786     0.08080
N126        N  0.23081647  0.19006280  0.66489176    -0.35760
N127        N  0.22185823  0.22164334  0.66534362    -0.27940
C128        C  0.23390281  0.23495329  0.68563872    -0.03180
C129        C  0.25052062  0.21037075  0.69859671     0.05430
C130        C  0.24812130  0.18235962  0.68490586     0.03520
H131        H  0.23093679  0.26058565  0.69053900     0.08630
H132        H  0.25948273  0.15840853  0.68874783     0.07460
C133        C  0.26182904  0.87593333  0.50857978     0.03490
C134        C  0.26378444  0.91024417  0.50533159    -0.12660
C135        C  0.28357705  0.92421549  0.48608387     0.00990
C136        C  0.30004380  0.90205457  0.46997536    -0.11180
C137        C  0.29651762  0.86790186  0.47267132     0.03490
C138        C  0.27781480  0.85495327  0.49204600    -0.10600
H139        H  0.25020459  0.92526401  0.51837087     0.09080
H140        H  0.31679375  0.91047852  0.45549737     0.06610
H141        H  0.27622464  0.82843716  0.49450610     0.06460
N142        N  0.42076273  0.61402914  0.37464575    -0.26930
N143        N  0.42722000  0.63378807  0.39271981    -0.34780
C144        C  0.44526283  0.61731036  0.40936773     0.01410
C145        C  0.45038630  0.58551545  0.40165026     0.07440
C146        C  0.43443299  0.58396387  0.37958252    -0.05660
H147        H  0.45373606  0.62768487  0.42605513     0.08110
H148        H  0.43329632  0.56286963  0.36792647     0.09310
Cu149      Cu  0.41063823  0.68186535  0.39558409     0.44170
Cu150      Cu  0.39467183  0.63065997  0.34428305     0.41990
Cu151      Cu  0.37686370  0.72091294  0.34536769     0.43880
N152        N  0.38905115  0.72833623  0.39709972    -0.34310
N153        N  0.37636761  0.74349302  0.37825439    -0.28570
C154        C  0.36096625  0.77194769  0.38509443    -0.04670
C155        C  0.36450966  0.77485108  0.40949377     0.07550
C156        C  0.38225050  0.74650281  0.41644057     0.01350
H157        H  0.34709962  0.78864468  0.37332703     0.09000
H158        H  0.38787911  0.73854347  0.43434683     0.08080
N159        N  0.36808372  0.69009344  0.31677093    -0.35760
N160        N  0.37167558  0.65765344  0.31672348    -0.27940
C161        C  0.35751665  0.64582742  0.29657639    -0.03180
C162        C  0.34422896  0.67201774  0.28325704     0.05430
C163        C  0.35244091  0.69968318  0.29659586     0.03520
H164        H  0.35584449  0.61985228  0.29242095     0.08630
H165        H  0.34723858  0.72520131  0.29251629     0.07460
C166        C  0.31448611  0.87855174  0.96373045     0.03490
C167        C  0.30984384  0.91247066  0.96738241    -0.12660
C168        C  0.30059975  0.92492199  0.99009694     0.00990
C169        C  0.29545400  0.90214897  0.00884721    -0.11180
C170        C  0.29831046  0.86809819  0.00498897     0.03490
C171        C  0.30760622  0.85663894  0.98242028    -0.10600
H172        H  0.31308211  0.92867051  0.95224686     0.09080
H173        H  0.28958497  0.91044905  0.02664085     0.06610
H174        H  0.30967209  0.83032977  0.97934755     0.06460
N175        N  0.18744895  0.60728944  0.10391501    -0.26930
N176        N  0.19695499  0.62167343  0.08379296    -0.34780
C177        C  0.18037195  0.60692390  0.06581843     0.01410
C178        C  0.15828664  0.58193203  0.07457314     0.07440
C179        C  0.16371293  0.58306825  0.09908866    -0.05660
H180        H  0.18353108  0.61529477  0.04773457     0.08110
H181        H  0.15050315  0.56866304  0.11270173     0.09310
Cu182      Cu  0.22523503  0.66520257  0.08034776     0.44170
Cu183      Cu  0.20722279  0.62346676  0.13648158     0.41990
Cu184      Cu  0.23423166  0.71076468  0.13196428     0.43880
N185        N  0.23870256  0.71456489  0.07960642    -0.34310
N186        N  0.23975026  0.73241769  0.09909042    -0.28570
C187        C  0.24846002  0.76369197  0.09341327    -0.04670
C188        C  0.25310123  0.76533755  0.06911107     0.07550
C189        C  0.24689380  0.73380788  0.06088713     0.01350
H190        H  0.25269652  0.78327638  0.10606104     0.09000
H191        H  0.24857458  0.72542894  0.04272319     0.08080
N192        N  0.24316901  0.68081128  0.16086625    -0.35760
N193        N  0.23480266  0.64917118  0.16280233    -0.27940
C194        C  0.24841006  0.63752139  0.18329795    -0.03180
C195        C  0.26613684  0.66316537  0.19457520     0.05430
C196        C  0.26200453  0.69006566  0.17979878     0.03520
H197        H  0.24548885  0.61236304  0.18949800     0.08630
H198        H  0.27289179  0.71456729  0.18225924     0.07460
C199        C  0.05853154  0.51003145  0.01429680     0.03490
C200        C  0.03419907  0.52817010  0.00086674    -0.12660
C201        C  0.01870032  0.51471455  0.98045574     0.00990
C202        C  0.02377806  0.48079218  0.97595580    -0.11180
C203        C  0.04333199  0.46032608  0.99167208     0.03490
C204        C  0.06228498  0.47623894  0.01009281    -0.10600
H205        H  0.03023019  0.55393086  0.00516482     0.09080
H206        H  0.01418606  0.47114871  0.95947426     0.06610
H207        H  0.08203722  0.46351643  0.02047730     0.06460
N208        N  0.41708507  0.76885414  0.87120249    -0.26930
N209        N  0.40601299  0.74921607  0.88857829    -0.34780
C210        C  0.38400587  0.76592041  0.90304421     0.01410
C211        C  0.38083868  0.79772615  0.89457373     0.07440
C212        C  0.40254702  0.79903326  0.87447320    -0.05660
H213        H  0.37168319  0.75576045  0.91892034     0.08110
H214        H  0.40707187  0.82011704  0.86299343     0.09310
Cu215      Cu  0.42131723  0.70080113  0.89333747     0.44170
Cu216      Cu  0.45014317  0.75184438  0.84377057     0.41990
Cu217      Cu  0.47028619  0.66229576  0.84778453     0.43880
N218        N  0.44051219  0.65336568  0.89672098    -0.34310
N219        N  0.45862674  0.63855723  0.87962022    -0.28570
C220        C  0.47097884  0.60953327  0.88784369    -0.04670
C221        C  0.45977515  0.60595410  0.91119605     0.07550
C222        C  0.44085085  0.63436000  0.91629467     0.01350
H223        H  0.98914931  0.59357786  0.87823346     0.09000
H224        H  0.43047585  0.64176243  0.93343506     0.08080
N225        N  0.48481798  0.69288954  0.81965564    -0.35760
N226        N  0.47893677  0.72503067  0.81839845    -0.27940
C227        C  0.49455531  0.73687464  0.79846382    -0.03180
C228        C  0.51078453  0.71093565  0.78642357     0.05430
C229        C  0.00393791  0.68353531  0.80056031     0.03520
H230        H  0.49500261  0.76271279  0.79367521     0.08630
H231        H  0.01263376  0.65847751  0.79742697     0.07460
C232        C  0.01638080  0.50513107  0.47234744     0.03490
C233        C  0.01871761  0.47078448  0.47452048    -0.12660
C234        C  0.03993781  0.45599592  0.49233020     0.00990
C235        C  0.05934964  0.47702007  0.50750440    -0.11180
C236        C  0.05563860  0.51150434  0.50631639     0.03490
C237        C  0.03300290  0.52505958  0.48920233    -0.10600
H238        H  0.50419207  0.45617602  0.46190833     0.09080
H239        H  0.07813319  0.46693620  0.52003463     0.06610
H240        H  0.02889062  0.55148342  0.48845160     0.06460
N241        N  0.17557328  0.76136689  0.60754093    -0.26930
N242        N  0.18448353  0.74165158  0.58979524    -0.34780
C243        C  0.19990544  0.75952869  0.57240139     0.01410
C244        C  0.20089767  0.79201341  0.57944973     0.07440
C245        C  0.18530298  0.79250766  0.60181254    -0.05660
H246        H  0.20892134  0.74969960  0.55557282     0.08110
H247        H  0.18069924  0.81388020  0.61283943     0.09310
Cu248      Cu  0.17278650  0.69184288  0.58818488     0.44170
Cu249      Cu  0.14896679  0.74462840  0.63802068     0.41990
Cu250      Cu  0.12305089  0.65745131  0.63607808     0.43880
N251        N  0.14987756  0.64545928  0.58678997    -0.34310
N252        N  0.13024971  0.63311173  0.60425285    -0.28570
C253        C  0.11390375  0.60554492  0.59671657    -0.04670
C254        C  0.12403200  0.59993391  0.57330401     0.07550
C255        C  0.14700664  0.62590674  0.56774620     0.01350
H256        H  0.09396925  0.59228669  0.60701420     0.09000
H257        H  0.15915468  0.63142513  0.55070278     0.08080
N258        N  0.11470918  0.68784716  0.66496545    -0.35760
N259        N  0.12268568  0.71965705  0.66559187    -0.27940
C260        C  0.11055853  0.73217653  0.68626114    -0.03180
C261        C  0.09481115  0.70689193  0.69931631     0.05430
C262        C  0.09785969  0.67924415  0.68521133     0.03520
H263        H  0.11269001  0.75782445  0.69130807     0.08630
H264        H  0.08718072  0.65490448  0.68892275     0.07460
C265        C  0.07526935  0.53341422  0.52304181     0.00210
C266        C  0.07706338  0.52457099  0.54714367    -0.11670
C267        C  0.09403725  0.54494020  0.56366741     0.02440
C268        C  0.10854416  0.57568826  0.55640025     0.00120
C269        C  0.10761758  0.58401350  0.53220047    -0.11610
C270        C  0.09197230  0.56313219  0.51556176     0.02330
H271        H  0.06495585  0.50165921  0.55320616     0.15310
H272        H  0.11888987  0.60719114  0.52604651     0.15310
C273        C  0.09475385  0.57265562  0.49089433     0.36960
C274        C  0.09738188  0.53278432  0.58763172     0.36870
N275        N  0.09716092  0.58070201  0.47122907    -0.43380
N276        N  0.10017473  0.52270684  0.60675759    -0.43380
C277        C  0.03297131  0.71167068  0.76424589     0.00210
C278        C  0.05960896  0.68746085  0.76124501    -0.11670
C279        C  0.08037966  0.68584588  0.74049423     0.02440
C280        C  0.07529169  0.70916840  0.72222869     0.00120
C281        C  0.04951841  0.73393926  0.72531347    -0.11610
C282        C  0.02801850  0.73511187  0.74585146     0.02330
H283        H  0.06445253  0.66959468  0.77519325     0.15310
H284        H  0.04507582  0.75161117  0.71114515     0.15310
C285        C  0.99974906  0.75931037  0.74662708     0.36960
C286        C  0.10728224  0.66038981  0.73864319     0.36870
N287        N  0.47706816  0.77873645  0.74694542    -0.43380
N288        N  0.12879184  0.63995379  0.73719246    -0.43380
C289        C  0.00188116  0.53749448  0.96258677     0.00210
C290        C  0.01677470  0.56929252  0.95952212    -0.11670
C291        C  0.00295469  0.59183664  0.94327516     0.02440
C292        C  0.47430774  0.58263154  0.92875109     0.00120
C293        C  0.45916715  0.55114819  0.93133924    -0.11610
C294        C  0.97217970  0.52876200  0.94832112     0.02330
H295        H  0.03964854  0.57691080  0.96972757     0.15310
H296        H  0.43663066  0.54429963  0.92038895     0.15310
C297        C  0.45341366  0.49782378  0.95119192     0.36960
C298        C  0.01872717  0.62439379  0.94186387     0.36870
N299        N  0.43832578  0.47299351  0.95328667    -0.43380
N300        N  0.03123096  0.65052168  0.94091973    -0.43380
C301        C  0.13255730  0.56185559  0.06004953     0.00210
C302        C  0.12806148  0.57086720  0.03608599    -0.11670
C303        C  0.10521737  0.55371718  0.02112296     0.02440
C304        C  0.08396590  0.52765539  0.03005681     0.00120
C305        C  0.08847980  0.51776117  0.05373676    -0.11610
C306        C  0.11284076  0.53413122  0.06864100     0.02330
H307        H  0.14273828  0.59124644  0.02835376     0.15310
H308        H  0.07317446  0.49694114  0.06053473     0.15310
C309        C  0.11771081  0.52065649  0.09208005     0.36960
C310        C  0.10632199  0.56206649  0.99617601     0.36870
N311        N  0.12133558  0.50913019  0.11071765    -0.43380
N312        N  0.10812121  0.56868633  0.97621936    -0.43380
C313        C  0.32770583  0.86490829  0.94084511     0.00210
C314        C  0.30846027  0.83886772  0.93067196    -0.11670
C315        C  0.32437463  0.81844655  0.91369824     0.02440
C316        C  0.36011665  0.82412345  0.90639274     0.00120
C317        C  0.37794595  0.85242031  0.91440043    -0.11610
C318        C  0.36208257  0.87278238  0.93165160     0.02330
H319        H  0.28179432  0.83303511  0.93727869     0.15310
H320        H  0.40538184  0.85697787  0.90877939     0.15310
C321        C  0.38296864  0.89951582  0.94125078     0.36960
C322        C  0.30412605  0.79072003  0.90494438     0.36870
N323        N  0.39964597  0.92099785  0.94893245    -0.43380
N324        N  0.28795245  0.76846985  0.89794048    -0.43380
C325        C  0.28951052  0.84400073  0.02405613     0.00210
C326        C  0.25651673  0.84677060  0.03610549    -0.11670
C327        C  0.24469482  0.82190837  0.05163184     0.02440
C328        C  0.26589122  0.79361291  0.05500471     0.00120
C329        C  0.29948578  0.79145171  0.04389088    -0.11610
C330        C  0.31171748  0.81657246  0.02880902     0.02330
H331        H  0.23924160  0.86767616  0.03259136     0.15310
H332        H  0.31611250  0.76994828  0.04692778     0.15310
C333        C  0.34721334  0.81369466  0.01860313     0.36960
C334        C  0.20992772  0.82505426  0.06282315     0.36870
N335        N  0.37564449  0.81136362  0.01042383    -0.43380
N336        N  0.18204320  0.82757762  0.07177047    -0.43380
C337        C  0.46919796  0.55983038  0.41518202     0.00210
C338        C  0.44934869  0.53432599  0.42594341    -0.11670
C339        C  0.46436421  0.51495614  0.44401973     0.02440
C340        C  0.49990710  0.52106462  0.45129936     0.00120
C341        C  0.02042940  0.54473084  0.43895364    -0.11610
C342        C  0.00534838  0.56429893  0.42129317     0.02330
H343        H  0.42139718  0.53108204  0.42140647     0.15310
H344        H  0.04810845  0.54880863  0.44378384     0.15310
C345        C  0.02709504  0.58981312  0.41039603     0.36960
C346        C  0.44199079  0.49077588  0.45582033     0.36870
N347        N  0.04455194  0.61028356  0.40174853    -0.43380
N348        N  0.42401483  0.47129345  0.46516608    -0.43380
C349        C  0.32364675  0.67006613  0.26061821     0.00210
C350        C  0.32670910  0.64145084  0.24658727    -0.11670
C351        C  0.30766393  0.63798400  0.22536499     0.02440
C352        C  0.28511949  0.66363791  0.21758316     0.00120
C353        C  0.28183445  0.69200443  0.23152482    -0.11610
C354        C  0.30033196  0.69545047  0.25278765     0.02330
H355        H  0.34449180  0.62175015  0.25193411     0.15310
H356        H  0.26417731  0.71170408  0.22586885     0.15310
C357        C  0.29326701  0.72511147  0.26607710     0.36960
C358        C  0.31306498  0.60852482  0.21150954     0.36870
N359        N  0.28705098  0.74922523  0.27623519    -0.43380
N360        N  0.31747984  0.58483580  0.20048212    -0.43380
C361        C  0.24500117  0.86109497  0.52993562     0.00210
C362        C  0.20796604  0.85526688  0.53025453    -0.11670
C363        C  0.19248750  0.83462788  0.54756676     0.02440
C364        C  0.21425531  0.81974374  0.56487811     0.00120
C365        C  0.25085198  0.82735999  0.56548499    -0.11610
C366        C  0.26633929  0.84790823  0.54818044     0.02330
H367        H  0.19154544  0.86520413  0.51617212     0.15310
H368        H  0.26768314  0.81575296  0.57867826     0.15310
C369        C  0.30451631  0.85369185  0.54864393     0.36960
C370        C  0.15465490  0.82742790  0.54643161     0.36870
N371        N  0.33509999  0.85838223  0.54893748    -0.43380
N372        N  0.12433293  0.82160608  0.54557496    -0.43380
C373        C  0.31422873  0.84540472  0.45581172     0.00210
C374        C  0.34779526  0.83254259  0.46156849    -0.11670
C375        C  0.36512308  0.81026906  0.44647114     0.02440
C376        C  0.34848261  0.80023379  0.42521572     0.00120
C377        C  0.31509104  0.81384590  0.41929595    -0.11610
C378        C  0.29790172  0.83623742  0.43442585     0.02330
H379        H  0.36047508  0.83998373  0.47793953     0.15310
H380        H  0.30188139  0.80633069  0.40314970     0.15310
C381        C  0.26319750  0.84893886  0.42798662     0.36960
C382        C  0.40038918  0.79906272  0.45297163     0.36870
N383        N  0.23536514  0.85912715  0.42287931    -0.43380
N384        N  0.42866170  0.79019200  0.45828369    -0.43380
C385        C  0.27360206  0.04063491  0.51893109     0.00210
C386        C  0.27331855  0.03051795  0.54288427    -0.11670
C387        C  0.25807953  0.05019244  0.56073680     0.02440
C388        C  0.24369602  0.08140192  0.55498614     0.00120
C389        C  0.24508021  0.09199893  0.53130564    -0.11610
C390        C  0.25922473  0.07211179  0.51337334     0.02330
H391        H  0.28457630  0.00683917  0.54775403     0.15310
H392        H  0.23474944  0.11609793  0.52657862     0.15310
C393        C  0.25707851  0.08491260  0.48950891     0.36960
C394        C  0.25580542  0.03675477  0.58444476     0.36870
N395        N  0.25542953  0.09622156  0.47068159    -0.43380
N396        N  0.25387388  0.02572699  0.60337940    -0.43380
C397        C  0.31444462  0.21471861  0.76154258     0.00210
C398        C  0.28480565  0.19325917  0.76040060    -0.11670
C399        C  0.26305989  0.19221650  0.74035886     0.02440
C400        C  0.27025793  0.21339147  0.72103244     0.00120
C401        C  0.29885297  0.23574030  0.72234599    -0.11610
C402        C  0.32124395  0.23629010  0.74218738     0.02330
H403        H  0.27852555  0.17701136  0.77518029     0.15310
H404        H  0.30478536  0.25168163  0.70730642     0.15310
C405        C  0.35225587  0.25756806  0.74128503     0.36960
C406        C  0.23325480  0.16942184  0.74014110     0.36870
N407        N  0.37715253  0.27460137  0.74032452    -0.43380
N408        N  0.20937249  0.15117309  0.73997479    -0.43380
C409        C  0.32440962  0.04158505  0.96363507     0.00210
C410        C  0.32041850  0.03506482  0.93938512    -0.11670
C411        C  0.33182399  0.05771008  0.92203262     0.02440
C412        C  0.34731633  0.08820160  0.92887316     0.00120
C413        C  0.35333583  0.09349505  0.95320723    -0.11610
C414        C  0.34214364  0.07075672  0.97045522     0.02330
H415        H  0.30722113  0.01249571  0.93392765     0.15310
H416        H  0.36676280  0.11567141  0.95905239     0.15310
C417        C  0.34958522  0.07798265  0.99500153     0.36960
C418        C  0.32623072  0.04857736  0.89766331     0.36870
N419        N  0.35528238  0.08390803  0.01467045    -0.43380
N420        N  0.32168411  0.04022380  0.87831598    -0.43380
C421        C  0.22466687  0.06439435  0.07231154     0.00210
C422        C  0.20322323  0.04220188  0.05965815    -0.11670
C423        C  0.21854858  0.02117283  0.04260872     0.02440
C424        C  0.25580778  0.02237484  0.03822968     0.00120
C425        C  0.27737337  0.04239954  0.05251966    -0.11610
C426        C  0.26213524  0.06341664  0.06936447     0.02330
H427        H  0.17434418  0.04302484  0.06183157     0.15310
H428        H  0.30608875  0.04315156  0.04940785     0.15310
C429        C  0.28530495  0.08516317  0.08247539     0.36960
C430        C  0.19533787  0.00073229  0.02854713     0.36870
N431        N  0.30387801  0.10256986  0.09298717    -0.43380
N432        N  0.17668796  0.98430601  0.01731471    -0.43380
C433        C  0.47240864  0.31602314  0.91477016     0.00210
C434        C  0.48169588  0.34863352  0.90870812    -0.11670
C435        C  0.50414440  0.36759760  0.92339214     0.02440
C436        C  0.51656561  0.35431402  0.94519764     0.00120
C437        C  0.50826509  0.32108801  0.95026290    -0.11610
C438        C  0.48800937  0.30179584  0.93505861     0.02330
H439        H  0.47100790  0.35949650  0.89266356     0.15310
H440        H  0.01721518  0.30957791  0.96643577     0.15310
C441        C  0.48519144  0.26696908  0.94044214     0.36960
C442        C  0.51466895  0.39995757  0.91511897     0.36870
N443        N  0.48332841  0.23908042  0.94478314    -0.43380
N444        N  0.52300888  0.42589706  0.90838432    -0.43380
C445        C  0.12117569  0.30941511  0.05332052     0.00210
C446        C  0.08891465  0.29960529  0.04307843    -0.11670
C447        C  0.07227949  0.31927500  0.02603080     0.02440
C448        C  0.08875306  0.34898802  0.01828302     0.00120
C449        C  0.12077838  0.35911018  0.02904454    -0.11610
C450        C  0.13683007  0.33970811  0.04664043     0.02330
H451        H  0.07640669  0.27664634  0.04872037     0.15310
H452        H  0.13327097  0.38217437  0.02367842     0.15310
C453        C  0.16896028  0.35147964  0.05787034     0.36960
C454        C  0.03727125  0.30925684  0.01805122     0.36870
N455        N  0.19454448  0.36101022  0.06705415    -0.43380
N456        N  0.00903348  0.30099134  0.01217713    -0.43380
C457        C  0.36330116  0.06348028  0.40546821     0.00210
C458        C  0.32614597  0.06512925  0.40900499    -0.11670
C459        C  0.30908163  0.04457844  0.42557577     0.02440
C460        C  0.32954156  0.02294679  0.43959579     0.00120
C461        C  0.36623718  0.01927030  0.43470672    -0.11610
C462        C  0.38318778  0.03914940  0.41749871     0.02330
H463        H  0.31067229  0.08343277  0.39947819     0.15310
H464        H  0.38196116  0.00230689  0.44525784     0.15310
C465        C  0.42133207  0.03594296  0.41378945     0.36960
C466        C  0.27065694  0.04652932  0.42834868     0.36870
N467        N  0.45188486  0.03332286  0.41069254    -0.43380
N468        N  0.23981546  0.04775409  0.43042993    -0.43380
C469        C  0.02519347  0.17782709  0.25937115     0.00210
C470        C  0.01337087  0.19713944  0.24036057    -0.11670
C471        C  0.03296224  0.19872057  0.21911031     0.02440
C472        C  0.06562110  0.18128649  0.21687212     0.00120
C473        C  0.07712891  0.16158119  0.23588214    -0.11610
C474        C  0.05726493  0.15981097  0.25706201     0.02330
H475        H  0.48854395  0.21082802  0.24208577     0.15310
H476        H  0.10219413  0.14823897  0.23443471     0.15310
C477        C  0.07131533  0.14092712  0.27663089     0.36960
C478        C  0.01799213  0.21722614  0.19965461     0.36870
N479        N  0.08260773  0.12598947  0.29240437    -0.43380
N480        N  0.00579966  0.23195710  0.18407792    -0.43380
C481        C  0.07168211  0.35293153  0.53947556     0.00210
C482        C  0.05277012  0.32580110  0.54888323    -0.11670
C483        C  0.06859875  0.30448630  0.56523294     0.02440
C484        C  0.10383974  0.31046845  0.57292898     0.00120
C485        C  0.12151434  0.33933787  0.56544003    -0.11610
C486        C  0.10588618  0.36045711  0.54865441     0.02330
H487        H  0.02614155  0.32023897  0.54245376     0.15310
H488        H  0.14858259  0.34411630  0.57136531     0.15310
C489        C  0.12675396  0.38794817  0.53976020     0.36960
C490        C  0.04845105  0.27607967  0.57334365     0.36870
N491        N  0.14345324  0.41003203  0.53267456    -0.43380
N492        N  0.03231846  0.25329209  0.57980172    -0.43380
C493        C  0.01751180  0.34284529  0.45996005     0.00210
C494        C  0.04026097  0.32722292  0.44367437    -0.11670
C495        C  0.02637834  0.30583919  0.42661651     0.02440
C496        C  0.48905552  0.29981211  0.42587635     0.00120
C497        C  0.46642338  0.31541523  0.44234275    -0.11610
C498        C  0.48032539  0.33699779  0.45922094     0.02330
H499        H  0.06892636  0.33142323  0.44452635     0.15310
H500        H  0.43780286  0.31080791  0.44195526     0.15310
C501        C  0.45610341  0.35247442  0.47589851     0.36960
C502        C  0.05123430  0.28908765  0.41105105     0.36870
N503        N  0.43679358  0.36493871  0.48928938    -0.43380
N504        N  0.07125127  0.27564111  0.39864715    -0.43380
C505        C  0.55726789  0.36942785  0.51794114     0.03490
C506        C  0.54615099  0.34972315  0.49902512    -0.12660
C507        C  0.53299000  0.36399546  0.47839556     0.00990
C508        C  0.53244330  0.39824653  0.47588953    -0.11180
C509        C  0.54251386  0.41904584  0.49473330     0.03490
C510        C  0.55429509  0.40394757  0.51602537    -0.10600
H511        H  0.54740218  0.32305646  0.50037807     0.09080
H512        H  0.52391941  0.40794678  0.45902700     0.06610
H513        H  0.56060841  0.41853831  0.53141592     0.06460
N514        N  0.91442660  0.12118354  0.36837392    -0.26930
N515        N  0.90279603  0.14063068  0.38559015    -0.34780
C516        C  0.88220634  0.12304341  0.40062117     0.01410
C517        C  0.88099521  0.09092940  0.39273998     0.07440
C518        C  0.90181570  0.09039621  0.37229596    -0.05660
H519        H  0.87019257  0.13264452  0.41669708     0.08110
H520        H  0.90758459  0.06927592  0.36125091     0.09310
Cu521      Cu  0.91810885  0.18917462  0.39037613     0.44170
Cu522      Cu  0.94668487  0.13798597  0.34045112     0.41990
Cu523      Cu  0.96842192  0.22565257  0.34380044     0.43880
N524        N  0.94419199  0.23385355  0.39403496    -0.34310
N525        N  0.96324532  0.24720367  0.37664294    -0.28570
C526        C  0.98119144  0.27341523  0.38493301    -0.04670
C527        C  0.97308859  0.27664766  0.40878621     0.07550
C528        C  0.94923237  0.25136915  0.41392317     0.01350
H529        H  0.99984234  0.28813766  0.37456920     0.09000
H530        H  0.93827171  0.24489710  0.43115746     0.08080
N531        N  0.98029976  0.19628318  0.31508094    -0.35760
N532        N  0.97448487  0.16409945  0.31417748    -0.27940
C533        C  0.98922296  0.15232859  0.29403002    -0.03180
C534        C  0.00460781  0.17849713  0.28177497     0.05430
C535        C  0.99829724  0.20591545  0.29553061     0.03520
H536        H  0.98892534  0.12669288  0.28876655     0.08630
H537        H  0.50742664  0.23084948  0.29207350     0.07460
C538        C  0.53728567  0.37346221  0.96348848     0.03490
C539        C  0.56099215  0.35644471  0.97843470    -0.12660
C540        C  0.57219247  0.37017472  0.99977190     0.00990
C541        C  0.56562699  0.40353268  0.00413151    -0.11180
C542        C  0.54691914  0.42342809  0.98773513     0.03490
C543        C  0.53029621  0.40701976  0.96848448    -0.10600
H544        H  0.56881868  0.33133269  0.97454493     0.09080
H545        H  0.57415787  0.41294055  0.02099608     0.06610
H546        H  0.51050961  0.41951397  0.95808425     0.06460
N547        N  0.67940767  0.12460868  0.11015655    -0.26930
N548        N  0.68955785  0.14315895  0.09192738    -0.34780
C549        C  0.70698113  0.12437663  0.07607799     0.01410
C550        C  0.70768810  0.09243923  0.08455067     0.07440
C551        C  0.68994229  0.09325288  0.10619865    -0.05660
H552        H  0.71799602  0.13326137  0.05941649     0.08110
H553        H  0.68525846  0.07276598  0.11819900     0.09310
Cu554      Cu  0.67800995  0.19276226  0.08795133     0.44170
Cu555      Cu  0.65165102  0.14361782  0.13920498     0.41990
Cu556      Cu  0.63016302  0.23195029  0.13446581     0.43880
N557        N  0.65890959  0.24046814  0.08514388    -0.34310
N558        N  0.64108318  0.25513633  0.10245428    -0.28570
C559        C  0.62754638  0.28369586  0.09429189    -0.04670
C560        C  0.63775225  0.28728264  0.07078612     0.07550
C561        C  0.65726265  0.25927603  0.06549915     0.01350
H562        H  0.60907476  0.29916950  0.10406280     0.09000
H563        H  0.66676029  0.25176549  0.04816632     0.08080
N564        N  0.61542852  0.20190422  0.16268654    -0.35760
N565        N  0.62282615  0.17008859  0.16450551    -0.27940
C566        C  0.60697222  0.15808482  0.18427985    -0.03180
C567        C  0.58827911  0.18341794  0.19518207     0.05430
C568        C  0.59467639  0.21088825  0.18112287     0.03520
H569        H  0.60790758  0.13252263  0.18984426     0.08630
H570        H  0.58469782  0.23562588  0.18386002     0.07460
C571        C  0.77258018  0.00806233  0.01668734     0.03490
C572        C  0.78755288  0.02977969  0.00001032    -0.12660
C573        C  0.80867372  0.01815147  0.98124891     0.00990
C574        C  0.81375101  0.98409364  0.97880530    -0.11180
C575        C  0.79651945  0.96133970  0.99414638     0.03490
C576        C  0.77587089  0.97391405  0.01331214    -0.10600
H577        H  0.78292136  0.05602535  0.00191998     0.09080
H578        H  0.83167507  0.97573273  0.96494194     0.06610
H579        H  0.76242508  0.95768256  0.02578035     0.06460
N580        N  0.91627729  0.27221119  0.87182565    -0.26930
N581        N  0.90480768  0.25963716  0.89216612    -0.34780
C582        C  0.92114703  0.27482776  0.91007572     0.01410
C583        C  0.94531282  0.29750227  0.90087345     0.07440
C584        C  0.94099224  0.29573561  0.87642508    -0.05660
H585        H  0.91707159  0.26828389  0.92851155     0.08110
H586        H  0.95613036  0.30908492  0.86302611     0.09310
Cu587      Cu  0.87596701  0.21649650  0.89579346     0.44170
Cu588      Cu  0.89824895  0.25315874  0.83972494     0.41990
Cu589      Cu  0.87021994  0.16556504  0.84578638     0.43880
N590        N  0.86531120  0.16668549  0.89836740    -0.34310
N591        N  0.86543482  0.14692566  0.87989787    -0.28570
C592        C  0.85984525  0.11575147  0.88738618    -0.04670
C593        C  0.85567348  0.11585620  0.91198998     0.07670
C594        C  0.85950625  0.14887228  0.91809962     0.01350
H595        H  0.85923530  0.09498438  0.87554062     0.09000
H596        H  0.85774515  0.15955622  0.93559692     0.08080
N597        N  0.86224171  0.19478096  0.81607222    -0.35760
N598        N  0.87097255  0.22632567  0.81394981    -0.27940
C599        C  0.85642931  0.23828269  0.79390034    -0.03180
C600        C  0.83782176  0.21304335  0.78279630     0.05430
C601        C  0.84230827  0.18591759  0.79746777     0.03520
H602        H  0.85751123  0.26396812  0.78870486     0.08630
H603        H  0.83060732  0.16167507  0.79538213     0.07460
C604        C  0.81399356  0.00825501  0.46142043     0.03490
C605        C  0.80650669  0.02888912  0.48058387    -0.12660
C606        C  0.78691742  0.01731939  0.50022515     0.00990
C607        C  0.77916466  0.98331309  0.50171499    -0.11180
C608        C  0.78912290  0.96111438  0.48345526     0.03490
C609        C  0.80508153  0.97478982  0.46270851    -0.10600
H610        H  0.81523725  0.05434274  0.47969918     0.09080
H611        H  0.76493521  0.97472001  0.51727942     0.06610
H612        H  0.81037519  0.96022477  0.44711974     0.06460
N613        N  0.66002210  0.25839780  0.61053030    -0.26930
N614        N  0.64985231  0.23720175  0.59412702    -0.34780
C615        C  0.62793569  0.25242682  0.57890303     0.01410
C616        C  0.62397698  0.28482521  0.58590774     0.07440
C617        C  0.64501864  0.28797525  0.60589689    -0.05660
H618        H  0.61665423  0.24099694  0.56335032     0.08110
H619        H  0.64904368  0.31002323  0.61628999     0.09310
Cu620      Cu  0.66824957  0.18930016  0.59111308     0.44170
Cu621      Cu  0.69318823  0.24502905  0.63852305     0.41990
Cu622      Cu  0.72354416  0.15873575  0.63654150     0.43880
N623        N  0.69664126  0.14578848  0.58791873    -0.34310
N624        N  0.71797628  0.13462074  0.60461989    -0.28570
C625        C  0.73689617  0.10897792  0.59609580    -0.04670
C626        C  0.72679358  0.10358600  0.57280705     0.07550
C627        C  0.70109434  0.12746965  0.56835674     0.01350
H628        H  0.75825772  0.09694976  0.60560627     0.09000
H629        H  0.68793925  0.13240048  0.55170785     0.08080
N630        N  0.73081646  0.19006281  0.66489175    -0.35760
N631        N  0.72185821  0.22164334  0.66534361    -0.27940
C632        C  0.73390278  0.23495329  0.68563872    -0.03180
C633        C  0.75052060  0.21037075  0.69859670     0.05430
C634        C  0.74812129  0.18235962  0.68490585     0.03520
H635        H  0.73093676  0.26058565  0.69053899     0.08630
H636        H  0.75948273  0.15840854  0.68874782     0.07460
C637        C  0.76182908  0.87593332  0.50857980     0.03490
C638        C  0.76378447  0.91024416  0.50533159    -0.12660
C639        C  0.78357705  0.92421548  0.48608387     0.00990
C640        C  0.80004379  0.90205456  0.46997535    -0.11180
C641        C  0.79651763  0.86790185  0.47267132     0.03490
C642        C  0.77781483  0.85495326  0.49204600    -0.10600
H643        H  0.75020462  0.92526400  0.51837089     0.09080
H644        H  0.81679372  0.91047851  0.45549735     0.06610
H645        H  0.77622468  0.82843715  0.49450611     0.06460
N646        N  0.92076275  0.61402913  0.37464576    -0.26930
N647        N  0.92722002  0.63378807  0.39271981    -0.34780
C648        C  0.94526285  0.61731037  0.40936773     0.01410
C649        C  0.95038632  0.58551545  0.40165026     0.07440
C650        C  0.93443300  0.58396386  0.37958253    -0.05660
H651        H  0.95373608  0.62768487  0.42605513     0.08110
H652        H  0.93329633  0.56286962  0.36792647     0.09310
Cu653      Cu  0.91063826  0.68186535  0.39558409     0.44170
Cu654      Cu  0.89467184  0.63065996  0.34428305     0.41990
Cu655      Cu  0.87686373  0.72091294  0.34536768     0.43880
N656        N  0.88905117  0.72833624  0.39709972    -0.34310
N657        N  0.87636764  0.74349302  0.37825438    -0.28570
C658        C  0.86096627  0.77194769  0.38509443    -0.04670
C659        C  0.86450968  0.77485108  0.40949376     0.07550
C660        C  0.88225052  0.74650280  0.41644056     0.01350
H661        H  0.84709965  0.78864468  0.37332702     0.09000
H662        H  0.88787912  0.73854347  0.43434682     0.08080
N663        N  0.86808374  0.69009343  0.31677093    -0.35760
N664        N  0.87167560  0.65765344  0.31672348    -0.27940
C665        C  0.85751666  0.64582741  0.29657639    -0.03180
C666        C  0.84422897  0.67201772  0.28325704     0.05430
C667        C  0.85244094  0.69968317  0.29659585     0.03520
H668        H  0.85584450  0.61985226  0.29242096     0.08630
H669        H  0.84723860  0.72520130  0.29251628     0.07460
C670        C  0.81448610  0.87855174  0.96373045     0.03490
C671        C  0.80984383  0.91247066  0.96738241    -0.12660
C672        C  0.80059974  0.92492199  0.99009694     0.00990
C673        C  0.79545399  0.90214896  0.00884721    -0.11180
C674        C  0.79831046  0.86809818  0.00498897     0.03490
C675        C  0.80760622  0.85663894  0.98242028    -0.10600
H676        H  0.81308209  0.92867051  0.95224686     0.09080
H677        H  0.78958495  0.91044904  0.02664085     0.06610
H678        H  0.80967209  0.83032977  0.97934754     0.06460
N679        N  0.68744896  0.60728944  0.10391501    -0.26930
N680        N  0.69695499  0.62167343  0.08379297    -0.34780
C681        C  0.68037195  0.60692390  0.06581844     0.01410
C682        C  0.65828664  0.58193203  0.07457314     0.07440
C683        C  0.66371294  0.58306825  0.09908867    -0.05660
H684        H  0.68353108  0.61529477  0.04773458     0.08110
H685        H  0.65050316  0.56866304  0.11270174     0.09310
Cu686      Cu  0.72523504  0.66520256  0.08034776     0.44170
Cu687      Cu  0.70722281  0.62346675  0.13648158     0.41990
Cu688      Cu  0.73423169  0.71076468  0.13196428     0.43880
N689        N  0.73870257  0.71456489  0.07960642    -0.34310
N690        N  0.73975028  0.73241769  0.09909042    -0.28570
C691        C  0.74846004  0.76369196  0.09341327    -0.04670
C692        C  0.75310124  0.76533754  0.06911107     0.07550
C693        C  0.74689380  0.73380787  0.06088713     0.01350
H694        H  0.75269655  0.78327638  0.10606104     0.09000
H695        H  0.74857458  0.72542893  0.04272319     0.08080
N696        N  0.74316903  0.68081127  0.16086626    -0.35760
N697        N  0.73480268  0.64917118  0.16280233    -0.27940
C698        C  0.74841009  0.63752138  0.18329795    -0.03180
C699        C  0.76613687  0.66316536  0.19457520     0.05430
C700        C  0.76200456  0.69006565  0.17979878     0.03520
H701        H  0.74548888  0.61236303  0.18949800     0.08630
H702        H  0.77289181  0.71456728  0.18225924     0.07460
C703        C  0.55853154  0.51003145  0.01429681     0.03490
C704        C  0.53419907  0.52817009  0.00086675    -0.12660
C705        C  0.51870033  0.51471454  0.98045575     0.00990
C706        C  0.52377807  0.48079218  0.97595580    -0.11180
C707        C  0.54333200  0.46032607  0.99167209     0.03490
C708        C  0.56228499  0.47623893  0.01009282    -0.10600
H709        H  0.53023018  0.55393085  0.00516483     0.09080
H710        H  0.51418608  0.47114871  0.95947426     0.06610
H711        H  0.58203722  0.46351642  0.02047731     0.06460
N712        N  0.91708507  0.76885415  0.87120249    -0.26930
N713        N  0.90601299  0.74921608  0.88857829    -0.34780
C714        C  0.88400586  0.76592041  0.90304421     0.01410
C715        C  0.88083867  0.79772616  0.89457373     0.07440
C716        C  0.90254702  0.79903327  0.87447319    -0.05660
H717        H  0.87168318  0.75576046  0.91892034     0.08110
H718        H  0.90707187  0.82011704  0.86299342     0.09310
Cu719      Cu  0.92131722  0.70080114  0.89333747     0.44170
Cu720      Cu  0.95014317  0.75184439  0.84377057     0.41990
Cu721      Cu  0.97028619  0.66229577  0.84778453     0.43880
N722        N  0.94051219  0.65336569  0.89672097    -0.34310
N723        N  0.95862674  0.63855724  0.87962021    -0.28570
C724        C  0.97097883  0.60953328  0.88784368    -0.04670
C725        C  0.95977514  0.60595411  0.91119604     0.07550
C726        C  0.94085085  0.63436000  0.91629467     0.01350
H727        H  0.48914931  0.59357785  0.87823346     0.09000
H728        H  0.93047585  0.64176243  0.93343505     0.08080
N729        N  0.98481798  0.69288955  0.81965563    -0.35760
N730        N  0.97893677  0.72503068  0.81839844    -0.27940
C731        C  0.99455532  0.73687465  0.79846382    -0.03180
C732        C  0.01078454  0.71093566  0.78642357     0.05430
C733        C  0.50393790  0.68353531  0.80056031     0.03520
H734        H  0.99500262  0.76271280  0.79367521     0.08630
H735        H  0.51263375  0.65847750  0.79742697     0.07460
C736        C  0.51638078  0.50513107  0.47234744     0.03490
C737        C  0.51871759  0.47078448  0.47452048    -0.12660
C738        C  0.53993779  0.45599592  0.49233020     0.00990
C739        C  0.55934962  0.47702007  0.50750439    -0.11180
C740        C  0.55563858  0.51150434  0.50631639     0.03490
C741        C  0.53300288  0.52505958  0.48920232    -0.10600
H742        H  0.00419209  0.45617602  0.46190834     0.09080
H743        H  0.57813317  0.46693621  0.52003463     0.06610
H744        H  0.52889060  0.55148342  0.48845159     0.06460
N745        N  0.67557329  0.76136688  0.60754094    -0.26930
N746        N  0.68448355  0.74165157  0.58979524    -0.34780
C747        C  0.69990547  0.75952868  0.57240140     0.01410
C748        C  0.70089771  0.79201340  0.57944974     0.07440
C749        C  0.68530300  0.79250765  0.60181254    -0.05660
H750        H  0.70892138  0.74969959  0.55557283     0.08110
H751        H  0.68069925  0.81388019  0.61283944     0.09310
Cu752      Cu  0.67278650  0.69184287  0.58818489     0.44170
Cu753      Cu  0.64896678  0.74462840  0.63802068     0.41990
Cu754      Cu  0.62305087  0.65745132  0.63607808     0.43880
N755        N  0.64987755  0.64545928  0.58678997    -0.34310
N756        N  0.63024969  0.63311173  0.60425284    -0.28570
C757        C  0.61390373  0.60554493  0.59671656    -0.04670
C758        C  0.62403198  0.59993391  0.57330400     0.07550
C759        C  0.64700663  0.62590674  0.56774620     0.01350
H760        H  0.59396923  0.59228669  0.60701419     0.09000
H761        H  0.65915467  0.63142513  0.55070277     0.08080
N762        N  0.61470916  0.68784716  0.66496544    -0.35760
N763        N  0.62268566  0.71965705  0.66559187    -0.27940
C764        C  0.61055851  0.73217653  0.68626114    -0.03180
C765        C  0.59481113  0.70689193  0.69931631     0.05430
C766        C  0.59785967  0.67924415  0.68521132     0.03520
H767        H  0.61268999  0.75782444  0.69130807     0.08630
H768        H  0.58718070  0.65490448  0.68892274     0.07460
C769        C  0.57526933  0.53341423  0.52304181     0.00210
C770        C  0.57706336  0.52457100  0.54714366    -0.11670
C771        C  0.59403724  0.54494020  0.56366741     0.02440
C772        C  0.60854415  0.57568827  0.55640024     0.00120
C773        C  0.60761756  0.58401350  0.53220047    -0.11610
C774        C  0.59197228  0.56313219  0.51556176     0.02330
H775        H  0.56495583  0.50165921  0.55320615     0.15310
H776        H  0.61888985  0.60719115  0.52604650     0.15310
C777        C  0.59475383  0.57265562  0.49089432     0.36960
C778        C  0.59738186  0.53278433  0.58763172     0.36870
N779        N  0.59716090  0.58070201  0.47122907    -0.43380
N780        N  0.60017472  0.52270684  0.60675759    -0.43380
C781        C  0.53297130  0.71167067  0.76424589     0.00210
C782        C  0.55960895  0.68746084  0.76124501    -0.11670
C783        C  0.58037964  0.68584587  0.74049423     0.02440
C784        C  0.57529167  0.70916839  0.72222869     0.00120
C785        C  0.54951839  0.73393926  0.72531347    -0.11610
C786        C  0.52801848  0.73511186  0.74585146     0.02330
H787        H  0.56445251  0.66959467  0.77519325     0.15310
H788        H  0.54507580  0.75161117  0.71114515     0.15310
C789        C  0.49974904  0.75931036  0.74662709     0.36960
C790        C  0.60728222  0.66038981  0.73864319     0.36870
N791        N  0.97706818  0.77873646  0.74694542    -0.43380
N792        N  0.62879182  0.63995379  0.73719245    -0.43380
C793        C  0.50188117  0.53749448  0.96258678     0.00210
C794        C  0.51677469  0.56929252  0.95952214    -0.11670
C795        C  0.50295468  0.59183663  0.94327517     0.02440
C796        C  0.97430774  0.58263155  0.92875108     0.00120
C797        C  0.95916714  0.55114820  0.93133924    -0.11610
C798        C  0.47217971  0.52876199  0.94832112     0.02330
H799        H  0.53964853  0.57691080  0.96972759     0.15310
H800        H  0.93663064  0.54429964  0.92038895     0.15310
C801        C  0.95341364  0.49782379  0.95119193     0.36960
C802        C  0.51872715  0.62439380  0.94186389     0.36870
N803        N  0.93832575  0.47299353  0.95328668    -0.43380
N804        N  0.53123093  0.65052168  0.94091976    -0.43380
C805        C  0.63255729  0.56185559  0.06004953     0.00210
C806        C  0.62806146  0.57086721  0.03608600    -0.11670
C807        C  0.60521736  0.55371719  0.02112297     0.02440
C808        C  0.58396590  0.52765538  0.03005682     0.00120
C809        C  0.58847981  0.51776116  0.05373677    -0.11610
C810        C  0.61284077  0.53413121  0.06864101     0.02330
H811        H  0.64273825  0.59124646  0.02835378     0.15310
H812        H  0.57317448  0.49694113  0.06053474     0.15310
C813        C  0.61771083  0.52065647  0.09208005     0.36960
C814        C  0.60632198  0.56206650  0.99617602     0.36870
N815        N  0.62133561  0.50913017  0.11071765    -0.43380
N816        N  0.60812119  0.56868635  0.97621938    -0.43380
C817        C  0.82770583  0.86490829  0.94084511     0.00210
C818        C  0.80846026  0.83886772  0.93067196    -0.11670
C819        C  0.82437462  0.81844655  0.91369824     0.02440
C820        C  0.86011664  0.82412345  0.90639274     0.00120
C821        C  0.87794594  0.85242031  0.91440043    -0.11610
C822        C  0.86208256  0.87278238  0.93165160     0.02330
H823        H  0.78179432  0.83303511  0.93727869     0.15310
H824        H  0.90538183  0.85697787  0.90877938     0.15310
C825        C  0.88296863  0.89951582  0.94125077     0.36960
C826        C  0.80412604  0.79072003  0.90494438     0.36870
N827        N  0.89964596  0.92099786  0.94893244    -0.43380
N828        N  0.78795244  0.76846986  0.89794048    -0.43380
C829        C  0.78951052  0.84400072  0.02405613     0.00210
C830        C  0.75651672  0.84677058  0.03610549    -0.11670
C831        C  0.74469481  0.82190836  0.05163184     0.02440
C832        C  0.76589122  0.79361290  0.05500471     0.00120
C833        C  0.79948579  0.79145171  0.04389089    -0.11610
C834        C  0.81171749  0.81657247  0.02880902     0.02330
H835        H  0.73924158  0.86767614  0.03259135     0.15310
H836        H  0.81611251  0.76994828  0.04692779     0.15310
C837        C  0.84721335  0.81369467  0.01860314     0.36960
C838        C  0.70992771  0.82505424  0.06282314     0.36870
N839        N  0.87564450  0.81136363  0.01042384    -0.43380
N840        N  0.68204318  0.82757759  0.07177046    -0.43380
C841        C  0.96919798  0.55983039  0.41518202     0.00210
C842        C  0.94934871  0.53432598  0.42594341    -0.11670
C843        C  0.96436423  0.51495614  0.44401973     0.02440
C844        C  0.99990712  0.52106462  0.45129936     0.00120
C845        C  0.52042938  0.54473084  0.43895364    -0.11610
C846        C  0.50534836  0.56429893  0.42129316     0.02330
H847        H  0.92139720  0.53108204  0.42140648     0.15310
H848        H  0.54810844  0.54880862  0.44378384     0.15310
C849        C  0.52709502  0.58981311  0.41039603     0.36960
C850        C  0.94199081  0.49077588  0.45582033     0.36870
N851        N  0.54455193  0.61028356  0.40174853    -0.43380
N852        N  0.92401485  0.47129344  0.46516608    -0.43380
C853        C  0.82364677  0.67006612  0.26061821     0.00210
C854        C  0.82670914  0.64145083  0.24658727    -0.11670
C855        C  0.80766397  0.63798400  0.22536499     0.02440
C856        C  0.78511952  0.66363789  0.21758316     0.00120
C857        C  0.78183444  0.69200440  0.23152484    -0.11610
C858        C  0.80033196  0.69545044  0.25278767     0.02330
H859        H  0.84449186  0.62175015  0.25193409     0.15310
H860        H  0.76417729  0.71170405  0.22586887     0.15310
C861        C  0.79326697  0.72511142  0.26607713     0.36960
C862        C  0.81306504  0.60852483  0.21150952     0.36870
N863        N  0.78705091  0.74922517  0.27623524    -0.43380
N864        N  0.81747992  0.58483582  0.20048209    -0.43380
C865        C  0.74500122  0.86109495  0.52993563     0.00210
C866        C  0.70796608  0.85526688  0.53025455    -0.11670
C867        C  0.69248754  0.83462788  0.54756678     0.02440
C868        C  0.71425535  0.81974372  0.56487812     0.00120
C869        C  0.75085203  0.82735996  0.56548500    -0.11610
C870        C  0.76633934  0.84790820  0.54818044     0.02330
H871        H  0.69154548  0.86520414  0.51617214     0.15310
H872        H  0.76768319  0.81575292  0.57867826     0.15310
C873        C  0.80451636  0.85369180  0.54864393     0.36960
C874        C  0.65465494  0.82742792  0.54643164     0.36870
N875        N  0.83510004  0.85838217  0.54893747    -0.43380
N876        N  0.62433297  0.82160611  0.54557499    -0.43380
C877        C  0.81422875  0.84540472  0.45581172     0.00210
C878        C  0.84779527  0.83254258  0.46156849    -0.11670
C879        C  0.86512309  0.81026905  0.44647114     0.02440
C880        C  0.84848262  0.80023379  0.42521572     0.00120
C881        C  0.81509106  0.81384591  0.41929594    -0.11610
C882        C  0.79790174  0.83623742  0.43442585     0.02330
H883        H  0.86047509  0.83998371  0.47793953     0.15310
H884        H  0.80188141  0.80633070  0.40314969     0.15310
C885        C  0.76319752  0.84893887  0.42798661     0.36960
C886        C  0.90038919  0.79906271  0.45297163     0.36870
N887        N  0.73536517  0.85912716  0.42287930    -0.43380
N888        N  0.92866170  0.79019199  0.45828369    -0.43380
C889        C  0.77360197  0.04063490  0.51893107     0.00210
C890        C  0.77331848  0.03051796  0.54288425    -0.11670
C891        C  0.75807947  0.05019245  0.56073678     0.02440
C892        C  0.74369593  0.08140192  0.55498612     0.00120
C893        C  0.74508009  0.09199891  0.53130561    -0.11610
C894        C  0.75922461  0.07211177  0.51337332     0.02330
H895        H  0.78457625  0.00683918  0.54775401     0.15310
H896        H  0.73474931  0.11609790  0.52657860     0.15310
C897        C  0.75707835  0.08491255  0.48950888     0.36960
C898        C  0.75580538  0.03675479  0.58444475     0.36870
N899        N  0.75542934  0.09622149  0.47068155    -0.43380
N900        N  0.75387388  0.02572701  0.60337939    -0.43380
C901        C  0.81444458  0.21471863  0.76154258     0.00210
C902        C  0.78480560  0.19325920  0.76040060    -0.11670
C903        C  0.76305986  0.19221651  0.74035886     0.02440
C904        C  0.77025790  0.21339148  0.72103243     0.00120
C905        C  0.79885295  0.23574030  0.72234598    -0.11610
C906        C  0.82124392  0.23629011  0.74218738     0.02330
H907        H  0.77852550  0.17701139  0.77518030     0.15310
H908        H  0.80478535  0.25168163  0.70730641     0.15310
C909        C  0.85225584  0.25756806  0.74128503     0.36960
C910        C  0.73325475  0.16942186  0.74014110     0.36870
N911        N  0.87715251  0.27460137  0.74032452    -0.43380
N912        N  0.70937245  0.15117311  0.73997478    -0.43380
C913        C  0.82440959  0.04158505  0.96363507     0.00210
C914        C  0.82041850  0.03506480  0.93938512    -0.11670
C915        C  0.83182402  0.05771006  0.92203262     0.02440
C916        C  0.84731632  0.08820159  0.92887316     0.00120
C917        C  0.85333579  0.09349506  0.95320723    -0.11610
C918        C  0.84214359  0.07075673  0.97045522     0.02330
H919        H  0.80722116  0.01249569  0.93392765     0.15310
H920        H  0.86676274  0.11567142  0.95905240     0.15310
C921        C  0.84958514  0.07798267  0.99500154     0.36960
C922        C  0.82623081  0.04857730  0.89766331     0.36870
N923        N  0.85528228  0.08390805  0.01467046    -0.43380
N924        N  0.82168426  0.04022371  0.87831598    -0.43380
C925        C  0.72466687  0.06439436  0.07231154     0.00210
C926        C  0.70322322  0.04220189  0.05965815    -0.11670
C927        C  0.71854856  0.02117283  0.04260873     0.02440
C928        C  0.75580776  0.02237484  0.03822968     0.00120
C929        C  0.77737336  0.04239953  0.05251966    -0.11610
C930        C  0.76213525  0.06341664  0.06936446     0.02330
H931        H  0.67434418  0.04302486  0.06183158     0.15310
H932        H  0.80608874  0.04315153  0.04940784     0.15310
C933        C  0.78530497  0.08516316  0.08247538     0.36960
C934        C  0.69533784  0.00073230  0.02854714     0.36870
N935        N  0.80387804  0.10256985  0.09298716    -0.43380
N936        N  0.67668792  0.98430602  0.01731472    -0.43380
C937        C  0.97240869  0.31602314  0.91477013     0.00210
C938        C  0.98169590  0.34863353  0.90870811    -0.11670
C939        C  0.00414441  0.36759761  0.92339213     0.02440
C940        C  0.01656564  0.35431402  0.94519762     0.00120
C941        C  0.00826515  0.32108801  0.95026287    -0.11610
C942        C  0.98800944  0.30179583  0.93505858     0.02330
H943        H  0.97100790  0.35949652  0.89266355     0.15310
H944        H  0.51721511  0.30957792  0.96643580     0.15310
C945        C  0.98519153  0.26696907  0.94044209     0.36960
C946        C  0.01466894  0.39995759  0.91511896     0.36870
N947        N  0.98332853  0.23908040  0.94478308    -0.43380
N948        N  0.02300886  0.42589709  0.90838431    -0.43380
C949        C  0.62117574  0.30941512  0.05332053     0.00210
C950        C  0.58891470  0.29960529  0.04307844    -0.11670
C951        C  0.57227953  0.31927499  0.02603081     0.02440
C952        C  0.58875308  0.34898802  0.01828302     0.00120
C953        C  0.62077840  0.35911019  0.02904454    -0.11610
C954        C  0.63683011  0.33970812  0.04664043     0.02330
H955        H  0.57640674  0.27664633  0.04872038     0.15310
H956        H  0.63327099  0.38217437  0.02367841     0.15310
C957        C  0.66896031  0.35147966  0.05787033     0.36960
C958        C  0.53727128  0.30925682  0.01805124     0.36870
N959        N  0.69454451  0.36101026  0.06705414    -0.43380
N960        N  0.50903351  0.30099131  0.01217715    -0.43380
C961        C  0.86330120  0.06348027  0.40546822     0.00210
C962        C  0.82614600  0.06512923  0.40900498    -0.11670
C963        C  0.80908165  0.04457842  0.42557576     0.02440
C964        C  0.82954157  0.02294679  0.43959580     0.00120
C965        C  0.86623720  0.01927032  0.43470676    -0.11610
C966        C  0.88318782  0.03914942  0.41749876     0.02330
H967        H  0.81067232  0.08343273  0.39947816     0.15310
H968        H  0.88196118  0.00230693  0.44525789     0.15310
C969        C  0.92133211  0.03594300  0.41378952     0.36960
C970        C  0.77065695  0.04652928  0.42834864     0.36870
N971        N  0.95188491  0.03332292  0.41069264    -0.43380
N972        N  0.73981546  0.04775403  0.43042986    -0.43380
C973        C  0.52519346  0.17782709  0.25937114     0.00210
C974        C  0.51337086  0.19713944  0.24036056    -0.11670
C975        C  0.53296222  0.19872057  0.21911030     0.02440
C976        C  0.56562109  0.18128649  0.21687212     0.00120
C977        C  0.57712890  0.16158119  0.23588213    -0.11610
C978        C  0.55726492  0.15981097  0.25706200     0.02330
H979        H  0.98854397  0.21082803  0.24208578     0.15310
H980        H  0.60219412  0.14823897  0.23443470     0.15310
C981        C  0.57131533  0.14092712  0.27663088     0.36960
C982        C  0.51799211  0.21722614  0.19965460     0.36870
N983        N  0.58260773  0.12598947  0.29240436    -0.43380
N984        N  0.50579964  0.23195709  0.18407792    -0.43380
C985        C  0.57168207  0.35293154  0.53947556     0.00210
C986        C  0.55277008  0.32580111  0.54888323    -0.11670
C987        C  0.56859870  0.30448632  0.56523295     0.02440
C988        C  0.60383970  0.31046846  0.57292899     0.00120
C989        C  0.62151430  0.33933788  0.56544004    -0.11610
C990        C  0.60588615  0.36045712  0.54865442     0.02330
H991        H  0.52614151  0.32023899  0.54245377     0.15310
H992        H  0.64858255  0.34411630  0.57136532     0.15310
C993        C  0.62675393  0.38794817  0.53976021     0.36960
C994        C  0.54845100  0.27607969  0.57334366     0.36870
N995        N  0.64345322  0.41003203  0.53267456    -0.43380
N996        N  0.53231841  0.25329211  0.57980173    -0.43380
C997        C  0.51751179  0.34284529  0.45996005     0.00210
C998        C  0.54026096  0.32722291  0.44367438    -0.11670
C999        C  0.52637835  0.30583918  0.42661652     0.02440
C1000       C  0.98905552  0.29981213  0.42587635     0.00120
C1001       C  0.96642338  0.31541524  0.44234275    -0.11610
C1002       C  0.98032540  0.33699779  0.45922095     0.02330
H1003       H  0.56892636  0.33142322  0.44452636     0.15310
H1004       H  0.93780286  0.31080792  0.44195526     0.15310
C1005       C  0.95610343  0.35247442  0.47589852     0.36960
C1006       C  0.55123430  0.28908764  0.41105106     0.36870
N1007       N  0.93679360  0.36493871  0.48928939    -0.43380
N1008       N  0.57125128  0.27564110  0.39864717    -0.43380
loop_ 
_geom_bond_atom_site_label_1 
_geom_bond_atom_site_label_2 
_geom_bond_distance 
_geom_bond_site_symmetry_2 
_ccdc_geom_bond_type 
C1            C2   1.401       .  A
C1            C6   1.408       .  A
C1          C481   1.489       .  S
C2            C3   1.391       .  A
C2            H7   1.084       .  S
C3            C4   1.395       .  A
C3          C493   1.472       .  S
C4            C5   1.412       .  A
C4            H8   1.079       .  S
C5            C6   1.419       .  A
C5          C234   1.507       .  S
C6            H9   1.080       .  S
N10          N11   1.324       .  A
N10          C14   1.350       .  A
N10         Cu18   2.084       .  S
N11          C12   1.341       .  A
N11         Cu17   2.067       .  S
C12          C13   1.378       .  A
C12          H15   1.082       .  S
C13          C14   1.384       .  A
C13         C457   1.473       .  S
C14          H16   1.082       .  S
Cu17         N20   2.066       .  S
Cu18         N28   2.085       .  S
Cu19         N21   2.059       .  S
Cu19         N27   2.059       .  S
N20          N21   1.320       .  A
N20          C24   1.344       .  A
N21          C22   1.343       .  A
C22          C23   1.383       .  A
C22          H25   1.082       .  S
C23          C24   1.384       .  A
C23         C496   1.477       .  S
C24          H26   1.082       .  S
N27          N28   1.323       .  A
N27          C31   1.342       .  A
N28          C29   1.347       .  A
C29          C30   1.384       .  A
C29          H32   1.082       .  S
C30          C31   1.377       .  A
C30         C973   1.473       .  S
C31         H537   1.082       .  S
H33         C535   1.082   1_455  S
C34          C35   1.408       .  A
C34          C39   1.414       .  A
C34         C940   1.511       .  S
C35          C36   1.395       .  A
C35          H40   1.082       .  S
C36          C37   1.397   1_556  A
C36         C448   1.489   1_556  S
C37          C38   1.415   1_554  A
C37          H41   1.077       .  S
C38          C39   1.422       .  A
C38         C203   1.519       .  S
C39          H42   1.074       .  S
N43          N44   1.323       .  A
N43          C47   1.350       .  A
N43         Cu51   2.081       .  S
N44          C45   1.341       .  A
N44         Cu50   2.069       .  S
C45          C46   1.378       .  A
C45          H48   1.082       .  S
C46          C47   1.384       .  A
C46         C421   1.474       .  S
C47          H49   1.082       .  S
Cu50         N53   2.068       .  S
Cu51         N61   2.081       .  S
Cu52         N54   2.068       .  S
Cu52         N60   2.070       .  S
N53          N54   1.320       .  A
N53          C57   1.344       .  A
N54          C55   1.345       .  A
C55          C56   1.383       .  A
C55          H58   1.082       .  S
C56          C57   1.382       .  A
C56         C445   1.471       .  S
C57          H59   1.082       .  S
N60          N61   1.323       .  A
N60          C64   1.343       .  A
N61          C62   1.346       .  A
C62          C63   1.385       .  A
C62          H65   1.082       .  S
C63          C64   1.383       .  A
C63         C472   1.483       .  S
C64          H66   1.082       .  S
C67          C68   1.397       .  A
C67          C72   1.403   1_545  A
C67         C424   1.482       .  S
C68          C69   1.397   1_554  A
C68          H73   1.084       .  S
C69          C70   1.401   1_545  A
C69         C409   1.487       .  S
C70          C71   1.412       .  A
C70          H74   1.080       .  S
C71          C72   1.419   1_556  A
C71         C168   1.502       .  S
C72          H75   1.080       .  S
N76          N77   1.320       .  A
N76          C80   1.353       .  A
N76         Cu84   2.088       .  S
N77          C78   1.337       .  A
N77         Cu83   2.060       .  S
C78          C79   1.383       .  A
C78          H81   1.081       .  S
C79          C80   1.392       .  A
C79         C433   1.489       .  S
C80          H82   1.082       .  S
Cu83         N86   2.061       .  S
Cu84         N94   2.090       .  S
Cu85         N87   2.070       .  S
Cu85         N93   2.072       .  S
N86          N87   1.316       .  A
N86          C90   1.340       .  A
N87          C88   1.346       .  A
C88          C89   1.395       .  A
C88          H91   1.077       .  S
C89          C90   1.391       .  A
C89         C412   1.498       .  S
C90          H92   1.081       .  S
N93          N94   1.324       .  A
N93          C97   1.342       .  A
N94          C95   1.348       .  A
C95          C96   1.390       .  A
C95          H98   1.081       .  S
C96          C97   1.385       .  A
C96         C397   1.491       .  S
C97          H99   1.082       .  S
C100        C101   1.396       .  A
C100        C105   1.397   1_545  A
C100        C460   1.478       .  S
C101        C102   1.400       .  A
C101        H106   1.082       .  S
C102        C103   1.410   1_545  A
C102        C385   1.501       .  S
C103        C104   1.418       .  A
C103        H107   1.078       .  S
C104        C105   1.418       .  A
C104        C135   1.516       .  S
C105        H108   1.078       .  S
N109        N110   1.323       .  A
N109        C113   1.350       .  A
N109       Cu117   2.086       .  S
N110        C111   1.341       .  A
N110       Cu116   2.068       .  S
C111        C112   1.381       .  A
C111        H114   1.082       .  S
C112        C113   1.386       .  A
C112        C484   1.479       .  S
C113        H115   1.082       .  S
Cu116       N119   2.067       .  S
Cu117       N127   2.087       .  S
Cu118       N120   2.064       .  S
Cu118       N126   2.065       .  S
N119        N120   1.318       .  A
N119        C123   1.341       .  A
N120        C121   1.346       .  A
C121        C122   1.388       .  A
C121        H124   1.081       .  S
C122        C123   1.388       .  A
C122        C388   1.488       .  S
C123        H125   1.082       .  S
N126        N127   1.324       .  A
N126        C130   1.342       .  A
N127        C128   1.348       .  A
C128        C129   1.384       .  A
C128        H131   1.082       .  S
C129        C130   1.379       .  A
C129        C400   1.476       .  S
C130        H132   1.082       .  S
C133        C134   1.404       .  A
C133        C138   1.395       .  A
C133        C361   1.478       .  S
C134        C135   1.422       .  A
C134        H139   1.080       .  S
C135        C136   1.417       .  A
C136        C137   1.398       .  A
C136        H140   1.078       .  S
C137        C138   1.391       .  A
C137        C373   1.473       .  S
C138        H141   1.085       .  S
N142        N143   1.322       .  A
N142        C146   1.351       .  A
N142       Cu150   2.088       .  S
N143        C144   1.338       .  A
N143       Cu149   2.052       .  S
C144        C145   1.375       .  A
C144        H147   1.082       .  S
C145        C146   1.386       .  A
C145        C337   1.472       .  S
C146        H148   1.082       .  S
Cu149       N152   2.052       .  S
Cu150       N160   2.089       .  S
Cu151       N153   2.071       .  S
Cu151       N159   2.072       .  S
N152        N153   1.318       .  A
N152        C156   1.341       .  A
N153        C154   1.346       .  A
C154        C155   1.389       .  A
C154        H157   1.082       .  S
C155        C156   1.384       .  A
C155        C376   1.484       .  S
C156        H158   1.081       .  S
N159        N160   1.322       .  A
N159        C163   1.340       .  A
N160        C161   1.347       .  A
C161        C162   1.393       .  A
C161        H164   1.081       .  S
C162        C163   1.388       .  A
C162        C349   1.499       .  S
C163        H165   1.077       .  S
C166        C167   1.402       .  A
C166        C171   1.397       .  A
C166        C313   1.486       .  S
C167        C168   1.418       .  A
C167        H172   1.080       .  S
C168        C169   1.412   1_556  A
C169        C170   1.402       .  A
C169        H173   1.080       .  S
C170        C171   1.397   1_554  A
C170        C325   1.484       .  S
C171        H174   1.084       .  S
N175        N176   1.319       .  A
N175        C179   1.351       .  A
N175       Cu183   2.093       .  S
N176        C177   1.335       .  A
N176       Cu182   2.062       .  S
C177        C178   1.391       .  A
C177        H180   1.079       .  S
C178        C179   1.400       .  A
C178        C301   1.508       .  S
C179        H181   1.078       .  S
Cu182       N185   2.062       .  S
Cu183       N193   2.094       .  S
Cu184       N186   2.056       .  S
Cu184       N192   2.058       .  S
N185        N186   1.319       .  A
N185        C189   1.342       .  A
N186        C187   1.345       .  A
C187        C188   1.381       .  A
C187        H190   1.082       .  S
C188        C189   1.381       .  A
C188        C328   1.469       .  S
C189        H191   1.082       .  S
N192        N193   1.323       .  A
N192        C196   1.338       .  A
N193        C194   1.351       .  A
C194        C195   1.390       .  A
C194        H197   1.082       .  S
C195        C196   1.379       .  A
C195        C352   1.484       .  S
C196        H198   1.082       .  S
C199        C200   1.397       .  A
C199        C204   1.398       .  A
C199        C304   1.490       .  S
C200        C201   1.405   1_554  A
C200        H205   1.083       .  S
C201        C202   1.412       .  A
C201        C289   1.506       .  S
C202        C203   1.420       .  A
C202        H206   1.074       .  S
C203        C204   1.419   1_556  A
C204        H207   1.077       .  S
N208        N209   1.323       .  A
N208        C212   1.352       .  A
N208       Cu216   2.090       .  S
N209        C210   1.339       .  A
N209       Cu215   2.062       .  S
C210        C211   1.379       .  A
C210        H213   1.082       .  S
C211        C212   1.388       .  A
C211        C316   1.479       .  S
C212        H214   1.082       .  S
Cu215       N218   2.062       .  S
Cu216       N226   2.091       .  S
Cu217       N219   2.075       .  S
Cu217       N225   2.077       .  S
N218        N219   1.320       .  A
N218        C222   1.344       .  A
N219        C220   1.347       .  A
C220        C221   1.385       .  A
C220        H727   1.081       .  S
C221        C222   1.382       .  A
C221        C292   1.474       .  S
C222        H224   1.082       .  S
H223        C724   1.081       .  S
N225        N226   1.323       .  A
N225        C733   1.343       .  A
N226        C227   1.348       .  A
C227        C228   1.391       .  A
C227        H230   1.081       .  S
C228        C733   1.386       .  A
C228        C781   1.494       .  S
C229        C732   1.386       .  A
C229        H231   1.082       .  S
C229        N729   1.343   1_455  A
C232        C233   1.400       .  A
C232        C237   1.399       .  A
C232        C844   1.488   1_455  S
C233        C234   1.417       .  A
C233        H742   1.077       .  S
C234        C235   1.414       .  A
C235        C236   1.406       .  A
C235        H239   1.080       .  S
C236        C237   1.400       .  A
C236        C265   1.494       .  S
C237        H240   1.083       .  S
H238        C737   1.077       .  S
N241        N242   1.324       .  A
N241        C245   1.350       .  A
N241       Cu249   2.087       .  S
N242        C243   1.342       .  A
N242       Cu248   2.067       .  S
C243        C244   1.378       .  A
C243        H246   1.082       .  S
C244        C245   1.384       .  A
C244        C364   1.473       .  S
C245        H247   1.082       .  S
Cu248       N251   2.066       .  S
Cu249       N259   2.088       .  S
Cu250       N252   2.067       .  S
Cu250       N258   2.068       .  S
N251        N252   1.318       .  A
N251        C255   1.342       .  A
N252        C253   1.344       .  A
C253        C254   1.390       .  A
C253        H256   1.080       .  S
C254        C255   1.389       .  A
C254        C268   1.492       .  S
C255        H257   1.081       .  S
N258        N259   1.323       .  A
N258        C262   1.343       .  A
N259        C260   1.348       .  A
C260        C261   1.386       .  A
C260        H263   1.082       .  S
C261        C262   1.381       .  A
C261        C280   1.481       .  S
C262        H264   1.082       .  S
C265        C266   1.406       .  A
C265        C270   1.416       .  A
C266        C267   1.402       .  A
C266        H271   1.085       .  S
C267        C268   1.415       .  A
C267        C274   1.443       .  S
C268        C269   1.405       .  A
C269        C270   1.397       .  A
C269        H272   1.083       .  S
C270        C273   1.445       .  S
C273        N275   1.157       .  T
C274        N276   1.157       .  T
C277        C278   1.408       .  A
C277        C282   1.417       .  A
C277        C732   1.494       .  S
C278        C279   1.399       .  A
C278        H283   1.084       .  S
C279        C280   1.410       .  A
C279        C286   1.445       .  S
C280        C281   1.402       .  A
C281        C282   1.404       .  A
C281        H284   1.085       .  S
C282        C285   1.443   1_455  S
C285        N791   1.157       .  T
C286        N288   1.157       .  T
N287        C789   1.157       .  T
C289        C290   1.412       .  A
C289        C294   1.421   1_455  A
C290        C291   1.394       .  A
C290        H295   1.080       .  S
C291        C796   1.404   1_455  A
C291        C298   1.446       .  S
C292        C293   1.401       .  A
C292        C795   1.404       .  A
C293        C798   1.407       .  A
C293        H296   1.085       .  S
C294        C797   1.407       .  A
C294        C801   1.443       .  S
C297        C798   1.443       .  S
C297        N299   1.157       .  T
C298        N300   1.157       .  T
C301        C302   1.410       .  A
C301        C306   1.423       .  A
C302        C303   1.392       .  A
C302        H307   1.079       .  S
C303        C304   1.408       .  A
C303        C310   1.446   1_554  S
C304        C305   1.404       .  A
C305        C306   1.411       .  A
C305        H308   1.085       .  S
C306        C309   1.441       .  S
C309        N311   1.158       .  T
C310        N312   1.157       .  T
C313        C314   1.403       .  A
C313        C318   1.415       .  A
C314        C315   1.397       .  A
C314        H319   1.085       .  S
C315        C316   1.411       .  A
C315        C322   1.444       .  S
C316        C317   1.403       .  A
C317        C318   1.406       .  A
C317        H320   1.084       .  S
C318        C321   1.444       .  S
C321        N323   1.157       .  T
C322        N324   1.157       .  T
C325        C326   1.406       .  A
C325        C330   1.414       .  A
C326        C327   1.400       .  A
C326        H331   1.085       .  S
C327        C328   1.408       .  A
C327        C334   1.444       .  S
C328        C329   1.400       .  A
C329        C330   1.397       .  A
C329        H332   1.085       .  S
C330        C333   1.445       .  S
C333        N335   1.157       .  T
C334        N336   1.157       .  T
C337        C338   1.403       .  A
C337        C846   1.407       .  A
C338        C339   1.406       .  A
C338        H343   1.085       .  S
C339        C340   1.414       .  A
C339        C346   1.443       .  S
C340        C845   1.405       .  A
C340        C736   1.488       .  S
C341        C342   1.394       .  A
C341        C844   1.405   1_455  A
C341        H344   1.084       .  S
C342        C841   1.407   1_455  A
C342        C345   1.445       .  S
C345        N347   1.157       .  T
C346        N348   1.157       .  T
C349        C350   1.411       .  A
C349        C354   1.421       .  A
C350        C351   1.405       .  A
C350        H355   1.083       .  S
C351        C352   1.410       .  A
C351        C358   1.443       .  S
C352        C353   1.400       .  A
C353        C354   1.397       .  A
C353        H356   1.085       .  S
C354        C357   1.443       .  S
C357        N359   1.158       .  T
C358        N360   1.157       .  T
C361        C362   1.402       .  A
C361        C366   1.411       .  A
C362        C363   1.403       .  A
C362        H367   1.085       .  S
C363        C364   1.410       .  A
C363        C370   1.444       .  S
C364        C365   1.401       .  A
C365        C366   1.400       .  A
C365        H368   1.085       .  S
C366        C369   1.444       .  S
C369        N371   1.157       .  T
C370        N372   1.157       .  T
C373        C374   1.399       .  A
C373        C378   1.407       .  A
C374        C375   1.399       .  A
C374        H379   1.085       .  S
C375        C376   1.416       .  A
C375        C382   1.444       .  S
C376        C377   1.407       .  A
C377        C378   1.401       .  A
C377        H380   1.084       .  S
C378        C381   1.444       .  S
C381        N383   1.157       .  T
C382        N384   1.157       .  T
C385        C386   1.410       .  A
C385        C390   1.420       .  A
C386        C387   1.404       .  A
C386        H391   1.084       .  S
C387        C388   1.413       .  A
C387        C394   1.443       .  S
C388        C389   1.402       .  A
C389        C390   1.396       .  A
C389        H392   1.084       .  S
C390        C393   1.443       .  S
C393        N395   1.157       .  T
C394        N396   1.157       .  T
C397        C398   1.408       .  A
C397        C402   1.416       .  A
C398        C399   1.398       .  A
C398        H403   1.084       .  S
C399        C400   1.408       .  A
C399        C406   1.445       .  S
C400        C401   1.401       .  A
C401        C402   1.403       .  A
C401        H404   1.085       .  S
C402        C405   1.443       .  S
C405        N407   1.157       .  T
C406        N408   1.157       .  T
C409        C410   1.403       .  A
C409        C414   1.411       .  A
C410        C411   1.402       .  A
C410        H415   1.085       .  S
C411        C412   1.420       .  A
C411        C418   1.442       .  S
C412        C413   1.410       .  A
C413        C414   1.398       .  A
C413        H416   1.082       .  S
C414        C417   1.445       .  S
C417        N419   1.157   1_556  T
C418        N420   1.158       .  T
C421        C422   1.404       .  A
C421        C426   1.408       .  A
C422        C423   1.406       .  A
C422        H427   1.084       .  S
C423        C424   1.411       .  A
C423        C430   1.443       .  S
C424        C425   1.404       .  A
C425        C426   1.396       .  A
C425        H428   1.085       .  S
C426        C429   1.444       .  S
C429        N431   1.157       .  T
C430        N432   1.157   1_545  T
C433        C434   1.406       .  A
C433        C438   1.410       .  A
C434        C435   1.412       .  A
C434        H439   1.084       .  S
C435        C436   1.422       .  A
C435        C442   1.443       .  S
C436        C437   1.409       .  A
C436        C538   1.511       .  S
C437        C438   1.391       .  A
C437        H944   1.079       .  S
C438        C441   1.446       .  S
H440        C941   1.079       .  S
C441        N443   1.157       .  T
C442        N444   1.157       .  T
C445        C446   1.398       .  A
C445        C450   1.407       .  A
C446        C447   1.397       .  A
C446        H451   1.085       .  S
C447        C448   1.417       .  A
C447        C454   1.444       .  S
C448        C449   1.407       .  A
C449        C450   1.403       .  A
C449        H452   1.085       .  S
C450        C453   1.443       .  S
C453        N455   1.157       .  T
C454        N456   1.157       .  T
C457        C458   1.401       .  A
C457        C462   1.411       .  A
C458        C459   1.397       .  A
C458        H463   1.085       .  S
C459        C460   1.409       .  A
C459        C466   1.444       .  S
C460        C461   1.403       .  A
C461        C462   1.404       .  A
C461        H464   1.085       .  S
C462        C465   1.443       .  S
C465        N467   1.157       .  T
C466        N468   1.157       .  T
C469        C470   1.400       .  A
C469        C474   1.409       .  A
C469        C534   1.473       .  S
C470        C471   1.399       .  A
C470        H979   1.085   1_455  S
C471        C472   1.415       .  A
C471        C478   1.444       .  S
C472        C473   1.405       .  A
C473        C474   1.401       .  A
C473        H476   1.084       .  S
C474        C477   1.444       .  S
H475        C974   1.085       .  S
C477        N479   1.157       .  T
C478        N480   1.157       .  T
C481        C482   1.405       .  A
C481        C486   1.415       .  A
C482        C483   1.397       .  A
C482        H487   1.085       .  S
C483        C484   1.410       .  A
C483        C490   1.444       .  S
C484        C485   1.404       .  A
C485        C486   1.405       .  A
C485        H488   1.085       .  S
C486        C489   1.444       .  S
C489        N491   1.157       .  T
C490        N492   1.157       .  T
C493        C494   1.399       .  A
C493       C1002   1.409   1_455  A
C494        C495   1.400       .  A
C494        H499   1.085       .  S
C495       C1000   1.415   1_455  A
C495        C502   1.444       .  S
C496        C497   1.403       .  A
C496        C999   1.415       .  A
C497        C498   1.398       .  A
C497        H500   1.085       .  S
C498        C997   1.409       .  A
C498        C501   1.444       .  S
C501        N503   1.157       .  T
C502        N504   1.157       .  T
C505        C506   1.401       .  A
C505        C510   1.408       .  A
C505        C985   1.489       .  S
C506        C507   1.391       .  A
C506        H511   1.084       .  S
C507        C508   1.395       .  A
C507        C997   1.472       .  S
C508        C509   1.412       .  A
C508        H512   1.079       .  S
C509        C510   1.419       .  A
C509        C738   1.507       .  S
C510        H513   1.080       .  S
N514        N515   1.324       .  A
N514        C518   1.350       .  A
N514       Cu522   2.084       .  S
N515        C516   1.341       .  A
N515       Cu521   2.067       .  S
C516        C517   1.378       .  A
C516        H519   1.082       .  S
C517        C518   1.384       .  A
C517        C961   1.473       .  S
C518        H520   1.082       .  S
Cu521       N524   2.066       .  S
Cu522       N532   2.085       .  S
Cu523       N525   2.059       .  S
Cu523       N531   2.059       .  S
N524        N525   1.320       .  A
N524        C528   1.344       .  A
N525        C526   1.343       .  A
C526        C527   1.383       .  A
C526        H529   1.082       .  S
C527        C528   1.384       .  A
C527       C1000   1.477       .  S
C528        H530   1.082       .  S
N531        N532   1.323       .  A
N531        C535   1.342       .  A
N532        C533   1.347       .  A
C533        C534   1.384   1_655  A
C533        H536   1.082       .  S
C534        C535   1.377   1_455  A
C538        C539   1.408       .  A
C538        C543   1.414       .  A
C539        C540   1.395       .  A
C539        H544   1.082       .  S
C540        C541   1.397   1_556  A
C540        C952   1.489   1_556  S
C541        C542   1.415   1_554  A
C541        H545   1.077       .  S
C542        C543   1.422       .  A
C542        C707   1.519       .  S
C543        H546   1.074       .  S
N547        N548   1.323       .  A
N547        C551   1.350       .  A
N547       Cu555   2.081       .  S
N548        C549   1.341       .  A
N548       Cu554   2.069       .  S
C549        C550   1.378       .  A
C549        H552   1.082       .  S
C550        C551   1.384       .  A
C550        C925   1.474       .  S
C551        H553   1.082       .  S
Cu554       N557   2.068       .  S
Cu555       N565   2.081       .  S
Cu556       N558   2.068       .  S
Cu556       N564   2.070       .  S
N557        N558   1.320       .  A
N557        C561   1.344       .  A
N558        C559   1.345       .  A
C559        C560   1.383       .  A
C559        H562   1.082       .  S
C560        C561   1.382       .  A
C560        C949   1.471       .  S
C561        H563   1.082       .  S
N564        N565   1.323       .  A
N564        C568   1.343       .  A
N565        C566   1.346       .  A
C566        C567   1.385       .  A
C566        H569   1.082       .  S
C567        C568   1.383       .  A
C567        C976   1.483       .  S
C568        H570   1.082       .  S
C571        C572   1.397       .  A
C571        C576   1.403   1_545  A
C571        C928   1.482       .  S
C572        C573   1.397   1_554  A
C572        H577   1.084       .  S
C573        C574   1.401   1_545  A
C573        C913   1.487       .  S
C574        C575   1.412       .  A
C574        H578   1.080       .  S
C575        C576   1.419   1_556  A
C575        C672   1.502       .  S
C576        H579   1.080       .  S
N580        N581   1.320       .  A
N580        C584   1.353       .  A
N580       Cu588   2.088       .  S
N581        C582   1.337       .  A
N581       Cu587   2.060       .  S
C582        C583   1.383       .  A
C582        H585   1.081       .  S
C583        C584   1.392       .  A
C583        C937   1.489       .  S
C584        H586   1.082       .  S
Cu587       N590   2.061       .  S
Cu588       N598   2.090       .  S
Cu589       N591   2.070       .  S
Cu589       N597   2.072       .  S
N590        N591   1.316       .  A
N590        C594   1.340       .  A
N591        C592   1.346       .  A
C592        C593   1.395       .  A
C592        H595   1.077       .  S
C593        C594   1.391       .  A
C593        C916   1.498       .  S
C594        H596   1.081       .  S
N597        N598   1.324       .  A
N597        C601   1.342       .  A
N598        C599   1.348       .  A
C599        C600   1.390       .  A
C599        H602   1.081       .  S
C600        C601   1.385       .  A
C600        C901   1.491       .  S
C601        H603   1.082       .  S
C604        C605   1.396       .  A
C604        C609   1.397   1_545  A
C604        C964   1.478       .  S
C605        C606   1.400       .  A
C605        H610   1.082       .  S
C606        C607   1.410   1_545  A
C606        C889   1.501       .  S
C607        C608   1.418       .  A
C607        H611   1.078       .  S
C608        C609   1.418       .  A
C608        C639   1.516       .  S
C609        H612   1.078       .  S
N613        N614   1.323       .  A
N613        C617   1.350       .  A
N613       Cu621   2.086       .  S
N614        C615   1.341       .  A
N614       Cu620   2.068       .  S
C615        C616   1.381       .  A
C615        H618   1.082       .  S
C616        C617   1.386       .  A
C616        C988   1.479       .  S
C617        H619   1.082       .  S
Cu620       N623   2.067       .  S
Cu621       N631   2.087       .  S
Cu622       N624   2.064       .  S
Cu622       N630   2.065       .  S
N623        N624   1.318       .  A
N623        C627   1.341       .  A
N624        C625   1.346       .  A
C625        C626   1.388       .  A
C625        H628   1.081       .  S
C626        C627   1.388       .  A
C626        C892   1.488       .  S
C627        H629   1.082       .  S
N630        N631   1.324       .  A
N630        C634   1.342       .  A
N631        C632   1.348       .  A
C632        C633   1.384       .  A
C632        H635   1.082       .  S
C633        C634   1.379       .  A
C633        C904   1.476       .  S
C634        H636   1.082       .  S
C637        C638   1.404       .  A
C637        C642   1.395       .  A
C637        C865   1.478       .  S
C638        C639   1.422       .  A
C638        H643   1.080       .  S
C639        C640   1.417       .  A
C640        C641   1.398       .  A
C640        H644   1.078       .  S
C641        C642   1.391       .  A
C641        C877   1.473       .  S
C642        H645   1.085       .  S
N646        N647   1.322       .  A
N646        C650   1.351       .  A
N646       Cu654   2.088       .  S
N647        C648   1.338       .  A
N647       Cu653   2.052       .  S
C648        C649   1.375       .  A
C648        H651   1.082       .  S
C649        C650   1.386       .  A
C649        C841   1.472       .  S
C650        H652   1.082       .  S
Cu653       N656   2.052       .  S
Cu654       N664   2.089       .  S
Cu655       N657   2.071       .  S
Cu655       N663   2.072       .  S
N656        N657   1.318       .  A
N656        C660   1.341       .  A
N657        C658   1.346       .  A
C658        C659   1.389       .  A
C658        H661   1.082       .  S
C659        C660   1.384       .  A
C659        C880   1.484       .  S
C660        H662   1.081       .  S
N663        N664   1.322       .  A
N663        C667   1.340       .  A
N664        C665   1.347       .  A
C665        C666   1.393       .  A
C665        H668   1.081       .  S
C666        C667   1.388       .  A
C666        C853   1.499       .  S
C667        H669   1.077       .  S
C670        C671   1.402       .  A
C670        C675   1.397       .  A
C670        C817   1.486       .  S
C671        C672   1.418       .  A
C671        H676   1.080       .  S
C672        C673   1.412   1_556  A
C673        C674   1.402       .  A
C673        H677   1.080       .  S
C674        C675   1.397   1_554  A
C674        C829   1.484       .  S
C675        H678   1.084       .  S
N679        N680   1.319       .  A
N679        C683   1.351       .  A
N679       Cu687   2.093       .  S
N680        C681   1.335       .  A
N680       Cu686   2.062       .  S
C681        C682   1.391       .  A
C681        H684   1.079       .  S
C682        C683   1.400       .  A
C682        C805   1.508       .  S
C683        H685   1.078       .  S
Cu686       N689   2.062       .  S
Cu687       N697   2.094       .  S
Cu688       N690   2.056       .  S
Cu688       N696   2.058       .  S
N689        N690   1.319       .  A
N689        C693   1.342       .  A
N690        C691   1.345       .  A
C691        C692   1.381       .  A
C691        H694   1.082       .  S
C692        C693   1.381       .  A
C692        C832   1.469       .  S
C693        H695   1.082       .  S
N696        N697   1.323       .  A
N696        C700   1.338       .  A
N697        C698   1.351       .  A
C698        C699   1.390       .  A
C698        H701   1.082       .  S
C699        C700   1.379       .  A
C699        C856   1.484       .  S
C700        H702   1.082       .  S
C703        C704   1.397       .  A
C703        C708   1.398       .  A
C703        C808   1.490       .  S
C704        C705   1.405   1_554  A
C704        H709   1.083       .  S
C705        C706   1.412       .  A
C705        C793   1.506       .  S
C706        C707   1.420       .  A
C706        H710   1.074       .  S
C707        C708   1.419   1_556  A
C708        H711   1.077       .  S
N712        N713   1.323       .  A
N712        C716   1.352       .  A
N712       Cu720   2.090       .  S
N713        C714   1.339       .  A
N713       Cu719   2.062       .  S
C714        C715   1.379       .  A
C714        H717   1.082       .  S
C715        C716   1.388       .  A
C715        C820   1.479       .  S
C716        H718   1.082       .  S
Cu719       N722   2.062       .  S
Cu720       N730   2.091       .  S
Cu721       N723   2.075       .  S
Cu721       N729   2.077       .  S
N722        N723   1.320       .  A
N722        C726   1.344       .  A
N723        C724   1.347       .  A
C724        C725   1.385       .  A
C725        C726   1.382       .  A
C725        C796   1.474       .  S
C726        H728   1.082       .  S
N729        N730   1.323       .  A
N730        C731   1.348       .  A
C731        C732   1.391   1_655  A
C731        H734   1.081       .  S
C733        H735   1.082       .  S
C736        C737   1.400       .  A
C736        C741   1.399       .  A
C737        C738   1.417       .  A
C738        C739   1.414       .  A
C739        C740   1.406       .  A
C739        H743   1.080       .  S
C740        C741   1.400       .  A
C740        C769   1.494       .  S
C741        H744   1.083       .  S
N745        N746   1.324       .  A
N745        C749   1.350       .  A
N745       Cu753   2.087       .  S
N746        C747   1.342       .  A
N746       Cu752   2.067       .  S
C747        C748   1.378       .  A
C747        H750   1.082       .  S
C748        C749   1.384       .  A
C748        C868   1.473       .  S
C749        H751   1.082       .  S
Cu752       N755   2.066       .  S
Cu753       N763   2.088       .  S
Cu754       N756   2.067       .  S
Cu754       N762   2.068       .  S
N755        N756   1.318       .  A
N755        C759   1.342       .  A
N756        C757   1.344       .  A
C757        C758   1.390       .  A
C757        H760   1.080       .  S
C758        C759   1.389       .  A
C758        C772   1.492       .  S
C759        H761   1.081       .  S
N762        N763   1.323       .  A
N762        C766   1.343       .  A
N763        C764   1.348       .  A
C764        C765   1.386       .  A
C764        H767   1.082       .  S
C765        C766   1.381       .  A
C765        C784   1.481       .  S
C766        H768   1.082       .  S
C769        C770   1.406       .  A
C769        C774   1.416       .  A
C770        C771   1.402       .  A
C770        H775   1.085       .  S
C771        C772   1.415       .  A
C771        C778   1.443       .  S
C772        C773   1.405       .  A
C773        C774   1.397       .  A
C773        H776   1.083       .  S
C774        C777   1.445       .  S
C777        N779   1.157       .  T
C778        N780   1.157       .  T
C781        C782   1.408       .  A
C781        C786   1.417       .  A
C782        C783   1.399       .  A
C782        H787   1.084       .  S
C783        C784   1.410       .  A
C783        C790   1.445       .  S
C784        C785   1.402       .  A
C785        C786   1.404       .  A
C785        H788   1.085       .  S
C786        C789   1.443       .  S
C790        N792   1.157       .  T
C793        C794   1.412       .  A
C793        C798   1.421       .  A
C794        C795   1.394       .  A
C794        H799   1.080       .  S
C795        C802   1.446       .  S
C796        C797   1.401       .  A
C797        H800   1.085       .  S
C801        N803   1.157       .  T
C802        N804   1.157       .  T
C805        C806   1.410       .  A
C805        C810   1.423       .  A
C806        C807   1.392       .  A
C806        H811   1.079       .  S
C807        C808   1.408       .  A
C807        C814   1.446   1_554  S
C808        C809   1.404       .  A
C809        C810   1.411       .  A
C809        H812   1.085       .  S
C810        C813   1.441       .  S
C813        N815   1.158       .  T
C814        N816   1.157       .  T
C817        C818   1.403       .  A
C817        C822   1.415       .  A
C818        C819   1.397       .  A
C818        H823   1.085       .  S
C819        C820   1.411       .  A
C819        C826   1.444       .  S
C820        C821   1.403       .  A
C821        C822   1.406       .  A
C821        H824   1.084       .  S
C822        C825   1.444       .  S
C825        N827   1.157       .  T
C826        N828   1.157       .  T
C829        C830   1.406       .  A
C829        C834   1.414       .  A
C830        C831   1.400       .  A
C830        H835   1.085       .  S
C831        C832   1.408       .  A
C831        C838   1.444       .  S
C832        C833   1.400       .  A
C833        C834   1.397       .  A
C833        H836   1.085       .  S
C834        C837   1.445       .  S
C837        N839   1.157       .  T
C838        N840   1.157       .  T
C841        C842   1.403       .  A
C842        C843   1.406       .  A
C842        H847   1.085       .  S
C843        C844   1.414       .  A
C843        C850   1.443       .  S
C845        C846   1.394       .  A
C845        H848   1.084       .  S
C846        C849   1.445       .  S
C849        N851   1.157       .  T
C850        N852   1.157       .  T
C853        C854   1.411       .  A
C853        C858   1.421       .  A
C854        C855   1.405       .  A
C854        H859   1.083       .  S
C855        C856   1.410       .  A
C855        C862   1.443       .  S
C856        C857   1.400       .  A
C857        C858   1.397       .  A
C857        H860   1.085       .  S
C858        C861   1.443       .  S
C861        N863   1.158       .  T
C862        N864   1.157       .  T
C865        C866   1.402       .  A
C865        C870   1.411       .  A
C866        C867   1.403       .  A
C866        H871   1.085       .  S
C867        C868   1.410       .  A
C867        C874   1.444       .  S
C868        C869   1.401       .  A
C869        C870   1.400       .  A
C869        H872   1.085       .  S
C870        C873   1.444       .  S
C873        N875   1.157       .  T
C874        N876   1.157       .  T
C877        C878   1.399       .  A
C877        C882   1.407       .  A
C878        C879   1.399       .  A
C878        H883   1.085       .  S
C879        C880   1.416       .  A
C879        C886   1.444       .  S
C880        C881   1.407       .  A
C881        C882   1.401       .  A
C881        H884   1.084       .  S
C882        C885   1.444       .  S
C885        N887   1.157       .  T
C886        N888   1.157       .  T
C889        C890   1.410       .  A
C889        C894   1.420       .  A
C890        C891   1.404       .  A
C890        H895   1.084       .  S
C891        C892   1.413       .  A
C891        C898   1.443       .  S
C892        C893   1.402       .  A
C893        C894   1.396       .  A
C893        H896   1.084       .  S
C894        C897   1.443       .  S
C897        N899   1.157       .  T
C898        N900   1.157       .  T
C901        C902   1.408       .  A
C901        C906   1.416       .  A
C902        C903   1.398       .  A
C902        H907   1.084       .  S
C903        C904   1.408       .  A
C903        C910   1.445       .  S
C904        C905   1.401       .  A
C905        C906   1.403       .  A
C905        H908   1.085       .  S
C906        C909   1.443       .  S
C909        N911   1.157       .  T
C910        N912   1.157       .  T
C913        C914   1.403       .  A
C913        C918   1.411       .  A
C914        C915   1.402       .  A
C914        H919   1.085       .  S
C915        C916   1.420       .  A
C915        C922   1.442       .  S
C916        C917   1.410       .  A
C917        C918   1.398       .  A
C917        H920   1.082       .  S
C918        C921   1.445       .  S
C921        N923   1.157   1_556  T
C922        N924   1.158       .  T
C925        C926   1.404       .  A
C925        C930   1.408       .  A
C926        C927   1.406       .  A
C926        H931   1.084       .  S
C927        C928   1.411       .  A
C927        C934   1.443       .  S
C928        C929   1.404       .  A
C929        C930   1.396       .  A
C929        H932   1.085       .  S
C930        C933   1.444       .  S
C933        N935   1.157       .  T
C934        N936   1.157   1_545  T
C937        C938   1.406       .  A
C937        C942   1.410       .  A
C938        C939   1.412   1_655  A
C938        H943   1.084       .  S
C939        C940   1.422       .  A
C939        C946   1.443       .  S
C940        C941   1.409       .  A
C941        C942   1.391   1_455  A
C942        C945   1.446       .  S
C945        N947   1.157       .  T
C946        N948   1.157       .  T
C949        C950   1.398       .  A
C949        C954   1.407       .  A
C950        C951   1.397       .  A
C950        H955   1.085       .  S
C951        C952   1.417       .  A
C951        C958   1.444       .  S
C952        C953   1.407       .  A
C953        C954   1.403       .  A
C953        H956   1.085       .  S
C954        C957   1.443       .  S
C957        N959   1.157       .  T
C958        N960   1.157       .  T
C961        C962   1.401       .  A
C961        C966   1.411       .  A
C962        C963   1.397       .  A
C962        H967   1.085       .  S
C963        C964   1.409       .  A
C963        C970   1.444       .  S
C964        C965   1.403       .  A
C965        C966   1.404       .  A
C965        H968   1.085       .  S
C966        C969   1.443       .  S
C969        N971   1.157       .  T
C970        N972   1.157       .  T
C973        C974   1.400       .  A
C973        C978   1.409       .  A
C974        C975   1.399       .  A
C975        C976   1.415       .  A
C975        C982   1.444       .  S
C976        C977   1.405       .  A
C977        C978   1.401       .  A
C977        H980   1.084       .  S
C978        C981   1.444       .  S
C981        N983   1.157       .  T
C982        N984   1.157       .  T
C985        C986   1.405       .  A
C985        C990   1.415       .  A
C986        C987   1.397       .  A
C986        H991   1.085       .  S
C987        C988   1.410       .  A
C987        C994   1.444       .  S
C988        C989   1.404       .  A
C989        C990   1.405       .  A
C989        H992   1.085       .  S
C990        C993   1.444       .  S
C993        N995   1.157       .  T
C994        N996   1.157       .  T
C997        C998   1.399       .  A
C998        C999   1.400       .  A
C998       H1003   1.085       .  S
C999       C1006   1.444       .  S
C1000      C1001   1.403       .  A
C1001      C1002   1.398       .  A
C1001      H1004   1.085       .  S
C1002      C1005   1.444       .  S
C1005      N1007   1.157       .  T
C1006      N1008   1.157       .  T
