geometry optimzed in LAMMPS
_audit_creation_date              2020-11-30 
_audit_creation_method            'lammps2cif' 
_symmetry_space_group_name_H-M    'P1' 
_symmetry_Int_Tables_number       1 
_symmetry_cell_setting            triclinic 
loop_ 
_symmetry_equiv_pos_as_xyz 
  x,y,z 
_cell_length_a                    38.042514892848466 
_cell_length_b                    37.97644267919922 
_cell_length_c                    38.00852588117809 
_cell_angle_alpha                 89.94984016728128 
_cell_angle_beta                  90.03821242707974 
_cell_angle_gamma                 89.99663116301407 
loop_ 
_atom_site_label 
_atom_site_type_symbol 
_atom_site_fract_x 
_atom_site_fract_y 
_atom_site_fract_z 
_atom_site_charge 
O1          O  0.50700471  0.47380469  0.56234100    -0.88910
C2          C  0.51630341  0.42798339  0.46627346     0.87120
Mg3        Mg  0.46063081  0.50075710  0.57864395     1.58150
O4          O  0.56288382  0.50703522  0.47538544    -0.88640
O5          O  0.56302306  0.48566866  0.55562584    -0.75970
C6          C  0.41832084  0.60189866  0.44226920     0.92170
O7          O  0.44719498  0.43759177  0.51492708    -0.75780
O8          O  0.40410753  0.58604916  0.46807053    -0.83290
Mg9        Mg  0.49985527  0.42237590  0.54002557     1.57960
C10         C  0.55972211  0.58294563  0.39945601     0.92090
O11         O  0.54978923  0.40085334  0.56571518    -0.81550
H12         H  0.59883660  0.53625985  0.50025293    -0.06900
C13         C  0.46713535  0.51423541  0.42849903     0.87030
O14         O  0.48521083  0.55390864  0.56339380    -0.76060
O15         O  0.52788725  0.43915789  0.49455472    -0.88830
O16         O  0.56755585  0.55054979  0.40339021    -0.81640
C17         C  0.60456713  0.44256286  0.41986033     0.92210
C18         C  0.58247727  0.39767509  0.55936416     0.92060
Mg19       Mg  0.50199538  0.57833984  0.46130402     1.57950
O20         O  0.45105696  0.59919446  0.43545934    -0.81560
O21         O  0.55484388  0.56313306  0.48643519    -0.75800
O22         O  0.60144229  0.43535204  0.45248409    -0.81640
O23         O  0.46899479  0.40381071  0.58686505    -0.83350
O24         O  0.40217160  0.56528255  0.55033576    -0.81670
C25         C  0.57347223  0.53536466  0.48745821     0.86500
O26         O  0.47445564  0.56146990  0.50718797    -0.88810
O27         O  0.49511008  0.52662220  0.43962688    -0.88920
O28         O  0.43911745  0.51465121  0.44671114    -0.75970
Mg29       Mg  0.57944595  0.46108252  0.50299418     1.57970
O30         O  0.58895381  0.46852715  0.40558076    -0.83350
H31         H  0.53514305  0.49855042  0.59922283    -0.07070
O32         O  0.43952522  0.49346063  0.52689366    -0.88620
H33         H  0.40320929  0.46482352  0.50189691    -0.06900
H34         H  0.49870372  0.59793319  0.53631473    -0.07070
C35         C  0.42865643  0.46538566  0.51454599     0.86470
C36         C  0.53493531  0.48603870  0.57369480     0.87060
C37         C  0.48621110  0.57239100  0.53551319     0.87110
H38         H  0.46681179  0.50160802  0.40302954    -0.07050
O39         O  0.51701444  0.44643178  0.43839637    -0.76080
Mg40       Mg  0.42305551  0.53937585  0.49946842     1.58000
H41         H  0.50406421  0.40231500  0.46556072    -0.07070
C42         C  0.44287668  0.41726075  0.60282517     0.92090
O43         O  0.41311139  0.53118938  0.59665463    -0.83310
C44         C  0.39836701  0.55787713  0.58289364     0.92150
O45         O  0.59763804  0.41408685  0.53445994    -0.83290
Mg46       Mg  0.54164607  0.49954629  0.42363612     1.58180
O47         O  0.43495192  0.44971312  0.59952495    -0.81630
O48         O  0.53317096  0.59700551  0.41413413    -0.83320
O49         O  0.99449817  0.47268398  0.43896716    -0.88910
C50         C  0.98683037  0.42704725  0.53504484     0.87120
Mg51       Mg  0.04071322  0.50006644  0.42274289     1.58150
O52         O  0.93935906  0.50568214  0.52685580    -0.88640
O53         O  0.93860586  0.48454228  0.44650977    -0.75970
C54         C  0.08232659  0.60247763  0.55849844     0.92170
O55         O  0.05455776  0.43649272  0.48560733    -0.75780
O56         O  0.09694989  0.58609648  0.53324335    -0.83290
Mg57       Mg  0.00171083  0.42088600  0.46066936     1.57960
C58         C  0.94151795  0.58214708  0.60235733     0.92090
O59         O  0.95069835  0.39990851  0.43464703    -0.81550
H60         H  0.90266997  0.53409153  0.50209079    -0.06900
C61         C  0.03488380  0.51435060  0.57318675     0.87030
O62         O  0.01596796  0.55312098  0.43785058    -0.76060
O63         O  0.97435516  0.43756179  0.50683621    -0.88830
O64         O  0.93488985  0.54929132  0.59948540    -0.81640
C65         C  0.89858886  0.44073320  0.58267629     0.92210
C66         C  0.91804060  0.39741239  0.44190162     0.92060
Mg67       Mg  0.99903258  0.57782340  0.53972508     1.57950
O68         O  0.04957309  0.59978858  0.56512552    -0.81560
O69         O  0.94640881  0.56174931  0.51500515    -0.75800
O70         O  0.90139052  0.43417352  0.54990674    -0.81640
O71         O  0.03288901  0.40238946  0.41350729    -0.83350
O72         O  0.10023910  0.56444550  0.45094631    -0.81670
C73         C  0.92817594  0.53373102  0.51463083     0.86500
O74         O  0.02692906  0.56099222  0.49395721    -0.88810
O75         O  0.00677423  0.52637077  0.56203673    -0.88920
O76         O  0.06272938  0.51461596  0.55476476    -0.75970
Mg77       Mg  0.92291866  0.45974832  0.49932816     1.57970
O78         O  0.91459527  0.46625630  0.59729183    -0.83350
H79         H  0.96586185  0.49763000  0.40256106    -0.07070
O80         O  0.06195035  0.49271902  0.47454457    -0.88620
H81         H  0.09828906  0.46383685  0.49930979    -0.06900
H82         H  0.00249467  0.59725364  0.46467468    -0.07070
C83         C  0.07287937  0.46447516  0.48658689     0.86470
C84         C  0.96642888  0.48500209  0.42804221     0.87060
C85         C  0.01506456  0.57174913  0.46559806     0.87110
H86         H  0.03543921  0.50204009  0.59882295    -0.07050
O87         O  0.98628379  0.44574944  0.56276828    -0.76080
Mg88       Mg  0.07849007  0.53899577  0.50186863     1.58000
H89         H  0.99972377  0.40170013  0.53581004    -0.07070
C90         C  0.05920883  0.41648256  0.39840940     0.92090
O91         O  0.08821062  0.53087121  0.40455298    -0.83310
C92         C  0.10424276  0.55671394  0.41849296     0.92150
O93         O  0.90434250  0.41292560  0.46816714    -0.83290
Mg94       Mg  0.96109932  0.49839496  0.57853769     1.58180
O95         O  0.06638806  0.44910640  0.40202577    -0.81630
O96         O  0.96743499  0.59638518  0.58667068    -0.83320
O97         O  0.47439000  0.43832720  0.99490786    -0.88910
C98         C  0.42755446  0.53405318  0.98633790     0.87120
Mg99       Mg  0.50131706  0.42283380  0.04192435     1.58150
O100        O  0.50552960  0.52594132  0.93806760    -0.88640
O101        O  0.48462766  0.44568412  0.93854573    -0.75970
C102        C  0.60388383  0.55910264  0.07973932     0.92170
O103        O  0.43740736  0.48445664  0.05474512    -0.75780
O104        O  0.58758043  0.53411601  0.09493276    -0.83290
Mg105      Mg  0.42252063  0.45889189  0.00177301     1.57960
C106        C  0.58159158  0.60285677  0.94056398     0.92090
O107        O  0.40292000  0.43197961  0.95074663    -0.81550
H108        H  0.53364401  0.50077659  0.90148754    -0.06900
C109        C  0.51445481  0.57321123  0.03332560     0.87030
O110        O  0.55432430  0.43743058  0.01677341    -0.76060
O111        O  0.43834902  0.50570525  0.97449093    -0.88830
O112        O  0.54907268  0.59916050  0.93310511    -0.81640
C113        C  0.44080481  0.58149911  0.89682466     0.92210
C114        C  0.39811990  0.44037365  0.91860898     0.92060
Mg115      Mg  0.57772572  0.53951348  0.99731259     1.57950
O116        O  0.60033876  0.56553544  0.04703361    -0.81560
O117        O  0.56150324  0.51423758  0.94495963    -0.75800
O118        O  0.43257760  0.54931839  0.90180597    -0.81640
O119        O  0.40484706  0.41076321  0.03234268    -0.83350
O120        O  0.56701733  0.45196121  0.09835351    -0.81670
C121        C  0.53343569  0.51359500  0.92686248     0.86500
O122        O  0.56118516  0.49402498  0.02568802    -0.88810
O123        O  0.52626891  0.56180959  0.00522469    -0.88920
O124        O  0.51527121  0.55517206  0.06149328    -0.75970
Mg125      Mg  0.45910137  0.49850468  0.92269713     1.57970
O126        O  0.46749173  0.59560538  0.91123049    -0.83350
H127        H  0.49953803  0.40229191  0.96600174    -0.07070
O128        O  0.49383320  0.47488897  0.06192266    -0.88620
H129        H  0.46467420  0.49939662  0.09818203    -0.06900
H130        H  0.59788659  0.46460624  0.00219986    -0.07070
C131        C  0.46546221  0.48646324  0.07287726     0.86470
C132        C  0.48640562  0.42751741  0.96664641     0.87060
C133        C  0.57240627  0.46549858  0.01473127     0.87110
H134        H  0.50192078  0.59874671  0.03363106    -0.07050
O135        O  0.44574330  0.56209955  0.98452431    -0.76080
Mg136      Mg  0.54028519  0.50253977  0.07746139     1.58000
H137        H  0.40234551  0.53480344  0.99941545    -0.07070
C138        C  0.41854411  0.39730141  0.05974980     0.92090
O139        O  0.53162206  0.40579578  0.09028916    -0.83310
C140        C  0.55889985  0.41980711  0.10361389     0.92150
O141        O  0.41151294  0.46782244  0.90501115    -0.83290
Mg142      Mg  0.49843702  0.57778404  0.95904127     1.58180
O143        O  0.45044834  0.40280533  0.06841191    -0.81630
O144        O  0.59583453  0.58637559  0.96593758    -0.83320
O145        O  0.47810622  0.00058916  0.43609840    -0.88910
C146        C  0.42338343  0.01275969  0.52719701     0.87120
Mg147      Mg  0.50978171  0.95550168  0.42555645     1.58150
O148        O  0.49930442  0.06464601  0.52138407    -0.88640
O149        O  0.48527109  0.05777125  0.43982248    -0.75970
C150        C  0.60154821  0.93085791  0.57257678     0.92170
O151        O  0.44272253  0.94143749  0.48495804    -0.75780
O152        O  0.59055060  0.91528305  0.54517756    -0.83290
Mg153      Mg  0.42566302  0.99086091  0.45466394     1.57960
C154        C  0.56770344  0.07306450  0.60368176     0.92090
O155        O  0.40294315  0.03747257  0.42305861    -0.81550
H156        H  0.52777471  0.10127533  0.49657819    -0.06900
C157        C  0.50927411  0.97306623  0.57535408     0.87030
O158        O  0.55929594  0.98549194  0.44330909    -0.76060
O159        O  0.43632554  0.02303655  0.49916236    -0.88830
O160        O  0.53541443  0.07790207  0.59630208    -0.81640
C161        C  0.42680256  0.10466547  0.56786976     0.92210
C162        C  0.39722555  0.07032190  0.42688774     0.92060
Mg163      Mg  0.57288008  0.01080104  0.54613944     1.57950
O164        O  0.59441012  0.96322924  0.57826364    -0.81560
O165        O  0.55654553  0.06061980  0.51587713    -0.75800
O166        O  0.42320992  0.09786837  0.53524617    -0.81640
O167        O  0.41369209  0.95518539  0.40924261    -0.83350
O168        O  0.57649591  0.90440884  0.46313843    -0.81670
C169        C  0.52767574  0.07678610  0.51107181     0.86500
O170        O  0.56269019  0.97940179  0.50057700    -0.88810
O171        O  0.52013240  0.00138957  0.56346766    -0.88920
O172        O  0.51416422  0.94409797  0.55932844    -0.75970
Mg173      Mg  0.45495584  0.07537420  0.48890856     1.57970
O174        O  0.45293466  0.09327013  0.58547498    -0.83350
H175        H  0.50386416  0.02821463  0.39950198    -0.07070
O176        O  0.49974651  0.93725282  0.47796133    -0.88620
H177        H  0.47186408  0.90077052  0.50360638    -0.06900
H178        H  0.59940055  0.00479497  0.47277871    -0.07070
C179        C  0.47163424  0.92518949  0.48899556     0.86470
C180        C  0.48922536  0.02865912  0.42385795     0.87060
C181        C  0.57504077  0.99015600  0.47244889     0.87110
H182        H  0.49436997  0.97307284  0.59955253    -0.07050
O183        O  0.43892574  0.01712504  0.55646003    -0.76080
Mg184      Mg  0.54468329  0.92699314  0.50990449     1.58000
H185        H  0.39873510  0.99862114  0.52664451    -0.07070
C186        C  0.43031759  0.92972763  0.39543773     0.92090
O187        O  0.54500673  0.90927678  0.41393060    -0.83310
C188        C  0.57101870  0.89684140  0.43089805     0.92150
O189        O  0.40975744  0.08771038  0.45256837    -0.83290
Mg190      Mg  0.48852691  0.04680869  0.57381485     1.58180
O191        O  0.46284519  0.92449629  0.40192048    -0.81630
O192        O  0.58431007  0.04631172  0.59222685    -0.83320
O193        O  0.02395147  0.43741464  0.00746279    -0.88910
C194        C  0.07131840  0.53343242  0.01484049     0.87120
Mg195      Mg  0.99662974  0.42044327  0.96132541     1.58150
O196        O  0.99234697  0.52602785  0.06160561    -0.88640
O197        O  0.01318904  0.44563299  0.06354358    -0.75970
C198        C  0.89833450  0.55832789  0.91646148     0.92170
O199        O  0.06108952  0.48286298  0.94669001    -0.75780
O200        O  0.91308667  0.53157777  0.90287884    -0.83290
Mg201      Mg  0.07565548  0.45864095  0.00002726     1.57960
C202        C  0.91682908  0.60270814  0.05705193     0.92090
O203        O  0.09627104  0.43338908  0.05110202    -0.81550
H204        H  0.96294382  0.50168590  0.09777853    -0.06900
C205        C  0.98613703  0.57127446  0.96517286     0.87030
O206        O  0.94390869  0.43710106  0.98549451    -0.76060
O207        O  0.05978207  0.50542777  0.02681663    -0.88830
O208        O  0.94921147  0.59855804  0.06488178    -0.81640
C209        C  0.05660816  0.58241309  0.10310382     0.92210
C210        C  0.10033631  0.44107728  0.08351444     0.92060
Mg211      Mg  0.92175872  0.53987531  0.00021265     1.57950
O212        O  0.90206313  0.56567352  0.94900290    -0.81560
O213        O  0.93629336  0.51518089  0.05351831    -0.75800
O214        O  0.06408272  0.54982059  0.09941801    -0.81640
O215        O  0.09335046  0.41075226  0.96984950    -0.83350
O216        O  0.93396653  0.44973671  0.90062228    -0.81670
C217        C  0.96396846  0.51420543  0.07225900     0.86500
O218        O  0.93771463  0.49323228  0.97345231    -0.88810
O219        O  0.97360597  0.56071878  0.99329702    -0.88920
O220        O  0.98528575  0.55269673  0.93739531    -0.75970
Mg221      Mg  0.03826252  0.49865417  0.07856391     1.57970
O222        O  0.03065614  0.59611675  0.08712312    -0.83350
H223        H  0.99908938  0.40157506  0.03687659    -0.07070
O224        O  0.00508857  0.47185105  0.93898008    -0.88620
H225        H  0.03435341  0.49549112  0.90225795    -0.06900
H226        H  0.90044748  0.46539940  0.99796464    -0.07070
C227        C  0.03342128  0.48340534  0.92798904     0.86470
C228        C  0.01194478  0.42692831  0.03584671     0.87060
C229        C  0.92605725  0.46537815  0.98566494     0.87110
H230        H  0.99919736  0.59653384  0.96449292    -0.07050
O231        O  0.05338205  0.56165788  0.01548191    -0.76080
Mg232      Mg  0.95980727  0.50009192  0.92194588     1.58000
H233        H  0.09691983  0.53365487  0.00252624    -0.07070
C234        C  0.07970179  0.39480317  0.94375802     0.92090
O235        O  0.96555826  0.40212857  0.91415627    -0.83310
C236        C  0.94063263  0.41699926  0.89745815     0.92150
O237        O  0.08548879  0.46770161  0.09730582    -0.83290
Mg238      Mg  0.00029216  0.57745519  0.03964841     1.58180
O239        O  0.04725353  0.39803234  0.93590867    -0.81630
O240        O  0.90349879  0.58769744  0.03035806    -0.83320
O241        O  0.00653838  0.02592864  0.43772627    -0.88910
C242        C  0.01474275  0.07148155  0.53382137     0.87120
Mg243      Mg  0.95999501  0.99843407  0.42195343     1.58150
O244        O  0.06209260  0.99283573  0.52477939    -0.88640
O245        O  0.06274143  0.01492203  0.44493501    -0.75970
C246        C  0.91916265  0.89661597  0.55869676     0.92170
O247        O  0.94622396  0.06213949  0.48410624    -0.75780
O248        O  0.90473859  0.91221115  0.53276092    -0.83290
Mg249      Mg  0.99907062  0.07763769  0.45913997     1.57960
C250        C  0.05951053  0.91643732  0.60142857     0.92090
O251        O  0.04979869  0.09904312  0.43370166    -0.81550
H252        H  0.09845980  0.96415438  0.49989659    -0.06900
C253        C  0.96706978  0.98477333  0.57227036     0.87030
O254        O  0.98515350  0.94552312  0.43709086    -0.76060
O255        O  0.02660630  0.06102361  0.50537868    -0.88830
O256        O  0.06741833  0.94875141  0.59709378    -0.81640
C257        C  0.10253153  0.05721930  0.58180431     0.92210
C258        C  0.08238327  0.10239496  0.44087523     0.92060
Mg259      Mg  0.00222982  0.92108498  0.53917416     1.57950
O260        O  0.95176801  0.90039931  0.56515092    -0.81560
O261        O  0.05497769  0.93658559  0.51396919    -0.75800
O262        O  0.09868283  0.06599678  0.54955311    -0.81640
O263        O  0.96824751  0.09573430  0.41123042    -0.83350
O264        O  0.90166461  0.93402661  0.45105368    -0.81670
C265        C  0.07311911  0.96467023  0.51272903     0.86500
O266        O  0.97456079  0.93787287  0.49332499    -0.88810
O267        O  0.99496433  0.97265178  0.56077056    -0.88920
O268        O  0.93892628  0.98431694  0.55427514    -0.75970
Mg269      Mg  0.07835605  0.03960560  0.49797895     1.57970
O270        O  0.08887114  0.02933996  0.59405983    -0.83350
H271        H  0.03530225  0.00143623  0.40116536    -0.07070
O272        O  0.93932221  0.00576893  0.47393457    -0.88620
H273        H  0.90272281  0.03464175  0.49823577    -0.06900
H274        H  0.99894773  0.90156460  0.46414692    -0.07070
C275        C  0.92814788  0.03403614  0.48557564     0.86470
C276        C  0.03472839  0.01399817  0.42666176     0.87060
C277        C  0.98629520  0.92702953  0.46496717     0.87110
H278        H  0.96693200  0.99721474  0.59783289    -0.07050
O279        O  0.01622900  0.05277896  0.56155513    -0.76080
Mg280      Mg  0.92304253  0.95961505  0.50153391     1.58000
H281        H  0.00187998  0.09683048  0.53490170    -0.07070
C282        C  0.94129237  0.08171588  0.39719749     0.92090
O283        O  0.91246944  0.96721134  0.40406667    -0.83310
C284        C  0.89757070  0.94088352  0.41848808     0.92150
O285        O  0.09669739  0.08687778  0.46687473    -0.83290
Mg286      Mg  0.04129892  0.99960585  0.57646835     1.58180
O287        O  0.93337986  0.04939378  0.40176087    -0.81630
O288        O  0.03310686  0.90230829  0.58658419    -0.83320
O289        O  0.43857807  0.00626164  0.02575698    -0.88910
C290        C  0.53425991  0.01591063  0.07253692     0.87120
Mg291      Mg  0.42261443  0.95980613  0.99839939     1.58150
O292        O  0.52528856  0.06275168  0.99356497    -0.88640
O293        O  0.44510532  0.06260461  0.01478753    -0.75970
C294        C  0.55904614  0.91899786  0.89747201     0.92170
O295        O  0.48597282  0.94641459  0.06153768    -0.75780
O296        O  0.53170775  0.90520145  0.91087275    -0.83290
Mg297      Mg  0.46036159  0.99885891  0.07740462     1.57960
C298        C  0.60240236  0.05978291  0.91842858     0.92090
O299        O  0.43388498  0.04906095  0.09884527    -0.81550
H300        H  0.50087170  0.09894962  0.96414587    -0.06900
C301        C  0.57233962  0.96680292  0.98601789     0.87030
O302        O  0.43776555  0.98506393  0.94541454    -0.76060
O303        O  0.50593660  0.02714704  0.06112159    -0.88830
O304        O  0.59715217  0.06826787  0.95042593    -0.81640
C305        C  0.58047676  0.10480940  0.05819601     0.92210
C306        C  0.44080778  0.08167997  0.10255790     0.92060
Mg307      Mg  0.54074226  0.00210736  0.92241601     1.57950
O308        O  0.56729411  0.95111688  0.90268039    -0.81560
O309        O  0.51544810  0.05520357  0.93718847    -0.75800
O310        O  0.54820156  0.10030690  0.06603206    -0.81640
O311        O  0.41367169  0.96717809  0.09583901    -0.83350
O312        O  0.45047421  0.90187106  0.93290678    -0.81670
C313        C  0.51368583  0.07356879  0.96510699     0.86500
O314        O  0.49402730  0.97484101  0.93812356    -0.88810
O315        O  0.56119868  0.99513257  0.97437964    -0.88920
O316        O  0.55440596  0.93859218  0.98406275    -0.75970
Mg317      Mg  0.49768598  0.07882489  0.03975903     1.57970
O318        O  0.59469292  0.09024318  0.03166950    -0.83350
H319        H  0.40172425  0.03466779  0.00120102    -0.07070
O320        O  0.47442246  0.93877797  0.00550857    -0.88620
H321        H  0.50001134  0.90279939  0.03415306    -0.06900
H322        H  0.46499663  0.99953109  0.90182689    -0.07070
C323        C  0.48690569  0.92804223  0.03361311     0.86470
C324        C  0.42718453  0.03437088  0.01383387     0.87060
C325        C  0.46574112  0.98665611  0.92718008     0.87110
H326        H  0.59766838  0.96616817  0.99890116    -0.07050
O327        O  0.56229456  0.01728757  0.05443269    -0.76080
Mg328      Mg  0.50143736  0.92294552  0.95890729     1.58000
H329        H  0.53494590  0.00357471  0.09815792    -0.07070
C330        C  0.39867920  0.94075703  0.08185998     0.92090
O331        O  0.40463395  0.91190314  0.96793107    -0.83310
C332        C  0.41839492  0.89690355  0.94140264     0.92150
O333        O  0.46643617  0.09657184  0.08709290    -0.83290
Mg334      Mg  0.57707715  0.04206639  0.00130921     1.58180
O335        O  0.40221232  0.93368095  0.04924511    -0.81630
O336        O  0.58887272  0.03243714  0.90471474    -0.83320
O337        O  0.06118181  0.00610969  0.97488487    -0.88910
C338        C  0.96565311  0.01366648  0.92763019     0.87120
Mg339      Mg  0.07741988  0.95997383  0.00247408     1.58150
O340        O  0.97355915  0.06054730  0.00653860    -0.88640
O341        O  0.05372641  0.06227548  0.98558532    -0.75970
C342        C  0.93989605  0.91628134  0.10095191     0.92170
O343        O  0.01630590  0.94549781  0.93740218    -0.75780
O344        O  0.96596869  0.90171435  0.08583276    -0.83290
Mg345      Mg  0.04090094  0.99882436  0.92275748     1.57960
C346        C  0.89740535  0.05682534  0.08266335     0.92090
O347        O  0.06700204  0.05047376  0.90260716    -0.81550
H348        H  0.99810607  0.09679034  0.03569975    -0.06900
C349        C  0.92715317  0.96497674  0.01278254     0.87030
O350        O  0.06138690  0.98436530  0.05514748    -0.76060
O351        O  0.99389722  0.02541628  0.93877994    -0.88830
O352        O  0.90120728  0.06578060  0.05046269    -0.81640
C353        C  0.91817117  0.10246535  0.94176163     0.92210
C354        C  0.05836778  0.08277790  0.89896609     0.92060
Mg355      Mg  0.95933435  0.99954923  0.07698735     1.57950
O356        O  0.93356058  0.94896945  0.09723421    -0.81560
O357        O  0.98438067  0.05271600  0.06260349    -0.75800
O358        O  0.95032208  0.09722596  0.93421596    -0.81640
O359        O  0.08904676  0.96840091  0.90550780    -0.83350
O360        O  0.04805150  0.89884021  0.06503198    -0.81670
C361        C  0.98546554  0.07132291  0.03483155     0.86500
O362        O  0.00540604  0.97230756  0.06118532    -0.88810
O363        O  0.93796324  0.99300222  0.02534597    -0.88920
O364        O  0.94542379  0.93696834  0.01364356    -0.75970
Mg365      Mg  0.00076623  0.07691103  0.96043418     1.57970
O366        O  0.90400644  0.08800087  0.96845356    -0.83350
H367        H  0.09753131  0.03510263  0.99945760    -0.07070
O368        O  0.02606922  0.93793180  0.99379076    -0.88620
H369        H  0.00255320  0.90136914  0.96418851    -0.06900
H370        H  0.03315493  0.99652756  0.09870774    -0.07070
C371        C  0.01488936  0.92697852  0.96524363     0.86470
C372        C  0.07210926  0.03437024  0.98676895     0.87060
C373        C  0.03319961  0.98437167  0.07300781     0.87110
H374        H  0.90191999  0.96457300  0.99970606    -0.07050
O375        O  0.93751739  0.01522986  0.94566280    -0.76080
Mg376      Mg  0.99782141  0.92076757  0.03909426     1.58000
H377        H  0.96505347  0.00095793  0.90220605    -0.07070
C378        C  0.10392921  0.94197737  0.91984489     0.92090
O379        O  0.09571223  0.91279828  0.03385281    -0.83310
C380        C  0.08083347  0.89595457  0.05866785     0.92150
O381        O  0.03084217  0.09523536  0.91311565    -0.83290
Mg382      Mg  0.92179715  0.03989808  0.99884449     1.58180
O383        O  0.09892617  0.93447067  0.95210755    -0.81630
O384        O  0.91190185  0.02934689  0.09483435    -0.83320
O385        O  0.72405813  0.74347141  0.31191288    -0.88910
C386        C  0.67737788  0.73616258  0.21605746     0.87120
Mg387      Mg  0.75123116  0.78990326  0.32869799     1.58150
O388        O  0.75533775  0.68790733  0.22464839    -0.87680
O389        O  0.73327126  0.68690011  0.30476526    -0.75970
C390        C  0.85257360  0.83154611  0.19243515     0.92170
O391        O  0.68731501  0.80402345  0.26617522    -0.75780
O392        O  0.83600790  0.84664415  0.21729694    -0.83290
Mg393      Mg  0.67243080  0.75089502  0.29098447     1.57960
C394        C  0.83223513  0.69104176  0.14913602     0.92090
O395        O  0.65216035  0.70001628  0.31744192    -0.81550
H396        H  0.78387789  0.65200190  0.25043265    -0.06900
C397        C  0.76402847  0.78399993  0.17832581     0.87030
O398        O  0.80410528  0.76533645  0.31340833    -0.76060
O399        O  0.68815939  0.72393479  0.24425581    -0.88830
O400        O  0.79958848  0.68395392  0.15234095    -0.81640
C401        C  0.69081610  0.64835756  0.16712005     0.92210
C402        C  0.64629451  0.66810633  0.30889317     0.92060
Mg403      Mg  0.82751842  0.74842635  0.21173951     1.57950
O404        O  0.84947410  0.79872620  0.18614369    -0.81560
O405        O  0.81118892  0.69581539  0.23683029    -0.75800
O406        O  0.68335620  0.65194754  0.19966838    -0.81640
O407        O  0.65481492  0.78112738  0.33868344    -0.83350
O408        O  0.81433377  0.85057544  0.29952451    -0.81670
C409        C  0.78335239  0.67729273  0.23739739     0.86500
O410        O  0.81110435  0.77662425  0.25729112    -0.88810
O411        O  0.77608522  0.75595526  0.18968545    -0.88920
O412        O  0.76444039  0.81207063  0.19645644    -0.75970
Mg413      Mg  0.70850498  0.67193027  0.25139555     1.57970
O414        O  0.71766389  0.66302340  0.15357956    -0.83350
H415        H  0.74800039  0.71399806  0.34838260    -0.07070
O416        O  0.74342431  0.81167869  0.27700077    -0.88620
H417        H  0.71425914  0.84810329  0.25268004    -0.06900
H418        H  0.84804331  0.75262465  0.28602614    -0.07070
C419        C  0.71511063  0.82256537  0.26520725     0.86470
C420        C  0.73533773  0.71494870  0.32293821     0.87060
C421        C  0.82240048  0.76487063  0.28547402     0.87110
H422        H  0.75157832  0.78430787  0.15276120    -0.07050
O423        O  0.69578933  0.73512607  0.18816751    -0.76080
Mg424      Mg  0.78909295  0.82828172  0.24905220     1.58000
H425        H  0.65203381  0.74900869  0.21535931    -0.07070
C426        C  0.66803965  0.80790899  0.35379289     0.92090
O427        O  0.78253555  0.83708212  0.34703682    -0.83310
C428        C  0.80757391  0.85365900  0.33224922     0.92150
O429        O  0.65975598  0.65422372  0.28154819    -0.83290
Mg430      Mg  0.74868917  0.70995134  0.17293122     1.58180
O431        O  0.70029760  0.81606995  0.34969881    -0.81630
O432        O  0.84611728  0.71712716  0.16479195    -0.83320
O433        O  0.74349860  0.31160023  0.72407294    -0.88910
C434        C  0.73476497  0.21577850  0.67802828     0.87120
Mg435      Mg  0.78992971  0.32744410  0.75117785     1.58150
O436        O  0.68755233  0.22425032  0.75665778    -0.88640
O437        O  0.68738557  0.30457566  0.73547826    -0.75970
C438        C  0.83018948  0.19063579  0.85275326     0.92170
O439        O  0.80338535  0.26480661  0.68724403    -0.75780
O440        O  0.84466933  0.21650636  0.83712951    -0.83290
Mg441      Mg  0.75054260  0.29009669  0.67245061     1.57960
C442        C  0.69045474  0.14751206  0.83229091     0.92090
O443        O  0.69985531  0.31623938  0.65252021    -0.81550
H444        H  0.65105602  0.24887545  0.78536547    -0.06900
C445        C  0.78270646  0.17678694  0.76443465     0.87030
O446        O  0.76507002  0.31216833  0.80410883    -0.76060
O447        O  0.72293835  0.24406018  0.68899599    -0.88830
O448        O  0.68269177  0.15156171  0.79991656    -0.81640
C449        C  0.64710377  0.16845078  0.69182556     0.92210
C450        C  0.66724137  0.30948579  0.64893189     0.92060
Mg451      Mg  0.74747041  0.20995656  0.82795049     1.57950
O452        O  0.79772431  0.18381358  0.84857671    -0.81560
O453        O  0.69473070  0.23516410  0.81280096    -0.75800
O454        O  0.65021332  0.20106080  0.68441548    -0.81640
O455        O  0.78154829  0.33752745  0.65392358    -0.83350
O456        O  0.84787667  0.29789522  0.81509101    -0.81670
C457        C  0.67648118  0.23618696  0.78481744     0.86500
O458        O  0.77514175  0.25576964  0.81114456    -0.88810
O459        O  0.75479457  0.18833459  0.77647088    -0.88920
O460        O  0.81084143  0.19478718  0.76487714    -0.75970
Mg461      Mg  0.67130365  0.25178593  0.71057827     1.57970
O462        O  0.66181273  0.15461387  0.71847349    -0.83350
H463        H  0.71507468  0.34821400  0.74890123    -0.07070
O464        O  0.81065788  0.27535944  0.74344630    -0.88620
H465        H  0.84709296  0.25087409  0.71453463    -0.06900
H466        H  0.75123753  0.28483768  0.84784673    -0.07070
C467        C  0.82167607  0.26357260  0.71520073     0.86470
C468        C  0.71545190  0.32274881  0.73623854     0.87060
C469        C  0.76372383  0.28412922  0.82232392     0.87110
H470        H  0.78285735  0.15118143  0.75205088    -0.07050
O471        O  0.73373009  0.18782450  0.69639887    -0.76080
Mg472      Mg  0.82665955  0.24755122  0.78956115     1.58000
H473        H  0.74738038  0.21509109  0.65256873    -0.07070
C474        C  0.80782343  0.35293906  0.66774731     0.92090
O475        O  0.83745601  0.34513799  0.78227806    -0.83310
C476        C  0.85216806  0.33048691  0.80859568     0.92150
O477        O  0.65297675  0.28296143  0.66354960    -0.83290
Mg478      Mg  0.70874902  0.17250661  0.74925480     1.58180
O479        O  0.81573530  0.34858770  0.70013006    -0.81630
O480        O  0.71660675  0.16265817  0.84655201    -0.83320
O481        O  0.22371087  0.75588833  0.68879703    -0.88910
C482        C  0.17744509  0.76371858  0.78440085     0.87120
Mg483      Mg  0.25094336  0.70966166  0.67264230     1.58150
O484        O  0.25587368  0.81146524  0.77591209    -0.88640
O485        O  0.23403982  0.81225127  0.69550724    -0.75970
C486        C  0.35321720  0.66841970  0.80869168     0.92170
O487        O  0.18768737  0.69543523  0.73514177    -0.75780
O488        O  0.33893589  0.65439644  0.78186195    -0.83290
Mg489      Mg  0.17214293  0.74831492  0.70992523     1.57960
C490        C  0.33173119  0.80903191  0.85285175     0.92090
O491        O  0.15149991  0.79894640  0.68339703    -0.81550
H492        H  0.28450047  0.84796591  0.75109725    -0.06900
C493        C  0.26470123  0.71551900  0.82286491     0.87030
O494        O  0.30381613  0.73476215  0.68790298    -0.76060
O495        O  0.18830588  0.77569900  0.75615073    -0.88830
O496        O  0.29912124  0.81605339  0.84945280    -0.81640
C497        C  0.19130205  0.85290965  0.83145567     0.92210
C498        C  0.14654969  0.83113513  0.69143877     0.92060
Mg499      Mg  0.32779422  0.75162918  0.79022533     1.57950
O500        O  0.34858182  0.70070935  0.81672644    -0.81560
O501        O  0.31204527  0.80436819  0.76499997    -0.75800
O502        O  0.18373023  0.84820828  0.79917014    -0.81640
O503        O  0.15401394  0.71771849  0.66243988    -0.83350
O504        O  0.31634892  0.65197921  0.70016966    -0.81670
C505        C  0.28400627  0.82255486  0.76389600     0.86500
O506        O  0.31147465  0.72407898  0.74408510    -0.88810
O507        O  0.27620872  0.74391003  0.81175112    -0.88920
O508        O  0.26607505  0.68748572  0.80463196    -0.75970
Mg509      Mg  0.20927518  0.82747696  0.74851670     1.57970
O510        O  0.21751925  0.83765731  0.84566951    -0.83350
H511        H  0.24778949  0.78467472  0.65192608    -0.07070
O512        O  0.24388582  0.68827737  0.72443683    -0.88620
H513        H  0.21518342  0.65187648  0.74932132    -0.06900
H514        H  0.34759683  0.74883707  0.71498137    -0.07070
C515        C  0.21572835  0.67725058  0.73645061     0.86470
C516        C  0.23530312  0.78412932  0.67745389     0.87060
C517        C  0.32224304  0.73602380  0.71578355     0.87110
H518        H  0.25223149  0.71473851  0.84839511    -0.07050
O519        O  0.19579398  0.76489661  0.81233228    -0.76080
Mg520      Mg  0.29069094  0.67225676  0.75145202     1.58000
H521        H  0.15209470  0.75089215  0.78509594    -0.07070
C522        C  0.16797406  0.69167992  0.64682269     0.92090
O523        O  0.28141644  0.66227651  0.65454041    -0.83310
C524        C  0.30839994  0.64775998  0.66779257     0.92150
O525        O  0.16102141  0.84533806  0.71806700    -0.83290
Mg526      Mg  0.24851287  0.79010117  0.82785402     1.58180
O527        O  0.20023456  0.68363588  0.65135618    -0.81630
O528        O  0.34625451  0.78326429  0.83720502    -0.83320
O529        O  0.18629205  0.24987863  0.77105672    -0.88910
C530        C  0.27724095  0.26142836  0.82584421     0.87120
Mg531      Mg  0.17599162  0.20464654  0.73913702     1.58150
O532        O  0.27184883  0.31453709  0.75038588    -0.88640
O533        O  0.19036645  0.30713673  0.76453273    -0.75970
C534        C  0.32242359  0.18213669  0.64661393     0.92170
O535        O  0.23487231  0.19089569  0.80594395    -0.75780
O536        O  0.29561977  0.16482905  0.65670139    -0.83290
Mg537      Mg  0.20432998  0.24017747  0.82357990     1.57960
C538        C  0.35428936  0.32138302  0.68142862     0.92090
O539        O  0.17240861  0.28711022  0.84676739    -0.81550
H540        H  0.24649703  0.35122578  0.72245509    -0.06900
C541        C  0.32531908  0.22245818  0.73876702     0.87030
O542        O  0.19272659  0.23508701  0.68963278    -0.76060
O543        O  0.24923363  0.27230749  0.81336909    -0.88830
O544        O  0.34783289  0.32671795  0.71394002    -0.81640
C545        C  0.31929263  0.35403171  0.82213571     0.92210
C546        C  0.17745362  0.31969520  0.85348647     0.92060
Mg547      Mg  0.29471806  0.26094083  0.67623377     1.57950
O548        O  0.32673246  0.21444581  0.65445371    -0.81560
O549        O  0.26470760  0.31044682  0.69326450    -0.75800
O550        O  0.28651460  0.34804201  0.82635058    -0.81640
O551        O  0.15876353  0.20411678  0.83518440    -0.83350
O552        O  0.21329854  0.15438267  0.67165974    -0.81670
C553        C  0.26090655  0.32670130  0.72221958     0.86500
O554        O  0.24990040  0.22902222  0.68615038    -0.88810
O555        O  0.31272739  0.25075418  0.72865210    -0.88920
O556        O  0.30975125  0.19330408  0.73357071    -0.75970
Mg557      Mg  0.23955073  0.32478164  0.79495984     1.57970
O558        O  0.33664357  0.34086621  0.79673844    -0.83350
H559        H  0.15006824  0.27795732  0.74523725    -0.07070
O560        O  0.22853738  0.18658535  0.74869911    -0.88620
H561        H  0.25449355  0.15057371  0.77697711    -0.06900
H562        H  0.22201599  0.25426741  0.64934871    -0.07070
C563        C  0.23954804  0.17477544  0.77700062     0.86470
C564        C  0.17431814  0.27811973  0.76006755     0.87060
C565        C  0.22176029  0.23967600  0.67376604     0.87110
H566        H  0.34975999  0.22263124  0.75327979    -0.07050
O567        O  0.30633637  0.26552476  0.80998618    -0.76080
Mg568      Mg  0.26018481  0.17635529  0.70329908     1.58000
H569        H  0.27677897  0.24693980  0.85032005    -0.07070
C570        C  0.14698214  0.17755451  0.81851737     0.92090
O571        O  0.16431560  0.15872411  0.70339804    -0.83310
C572        C  0.18096853  0.14723498  0.67673078     0.92150
O573        O  0.20339344  0.33626236  0.84045256    -0.83290
Mg574      Mg  0.32407629  0.29548177  0.76063323     1.58180
O575        O  0.15387927  0.17266579  0.78606074    -0.81630
O576        O  0.34035898  0.29609940  0.66467464    -0.83320
O577        O  0.27722910  0.75624512  0.31162208    -0.88910
C578        C  0.32255203  0.76270207  0.21516353     0.87120
Mg579      Mg  0.24934421  0.71040695  0.32852815     1.58150
O580        O  0.24400156  0.81026959  0.22373851    -0.88640
O581        O  0.26632785  0.81234930  0.30363837    -0.75970
C582        C  0.14774709  0.66697193  0.19211485     0.92170
O583        O  0.31294612  0.69511636  0.26610319    -0.75780
O584        O  0.16366340  0.65267610  0.21791110    -0.83290
Mg585      Mg  0.32880357  0.74837474  0.29001821     1.57960
C586        C  0.16758218  0.80815111  0.14824311     0.92090
O587        O  0.35056461  0.79992192  0.31491795    -0.81550
H588        H  0.21577419  0.84708352  0.24849057    -0.06900
C589        C  0.23568123  0.71463798  0.17794457     0.87030
O590        O  0.19670176  0.73521494  0.31257741    -0.76060
O591        O  0.31210852  0.77512070  0.24337395    -0.88830
O592        O  0.20027242  0.81450998  0.15167834    -0.81640
C593        C  0.30801929  0.85114324  0.16645720     0.92210
C594        C  0.35385387  0.83228954  0.30635187     0.92060
Mg595      Mg  0.17202558  0.75057261  0.21072295     1.57950
O596        O  0.15068957  0.69975056  0.18529414    -0.81560
O597        O  0.18797777  0.80342321  0.23540223    -0.75800
O598        O  0.31584362  0.84721729  0.19888165    -0.81640
O599        O  0.34680668  0.71785111  0.33787136    -0.83350
O600        O  0.18545405  0.64977253  0.30016499    -0.81670
C601        C  0.21604809  0.82155560  0.23595104     0.86500
O602        O  0.18872336  0.72298570  0.25673521    -0.88810
O603        O  0.22352641  0.74278951  0.18886129    -0.88920
O604        O  0.23537402  0.68681654  0.19651115    -0.75970
Mg605      Mg  0.29051234  0.82683725  0.25017252     1.57970
O606        O  0.28148906  0.83584526  0.15319996    -0.83350
H607        H  0.25332322  0.78567460  0.34803443    -0.07070
O608        O  0.25678052  0.68807718  0.27705285    -0.88620
H609        H  0.28557448  0.65114400  0.25316355    -0.06900
H610        H  0.15261964  0.74812935  0.28546142    -0.07070
C611        C  0.28497490  0.67682464  0.26537624     0.86470
C612        C  0.26555811  0.78465321  0.32240008     0.87060
C613        C  0.17804784  0.73545086  0.28483627     0.87110
H614        H  0.24812205  0.71402599  0.15239655    -0.07050
O615        O  0.30386227  0.76357985  0.18743048    -0.76080
Mg616      Mg  0.21077299  0.67130905  0.24936222     1.58000
H617        H  0.34785509  0.74978657  0.21433805    -0.07070
C618        C  0.33268422  0.69226403  0.35422682     0.92090
O619        O  0.21747439  0.66362979  0.34742469    -0.83310
C620        C  0.19210972  0.64721944  0.33297031     0.92150
O621        O  0.33800126  0.84538742  0.27994741    -0.83290
Mg622      Mg  0.25093555  0.78863788  0.17217355     1.58180
O623        O  0.30015059  0.68478233  0.35039937    -0.81630
O624        O  0.15319538  0.78202190  0.16355312    -0.83320
O625        O  0.68618200  0.25089259  0.22763452    -0.88910
C626        C  0.77755119  0.24045380  0.17370679     0.87120
Mg627      Mg  0.67572531  0.29523612  0.26026939     1.58150
O628        O  0.77151849  0.18665920  0.24838164    -0.88640
O629        O  0.69018364  0.19358116  0.23356324    -0.75970
C630        C  0.82196064  0.31748168  0.35435805     0.92170
O631        O  0.73473719  0.31077221  0.19364997    -0.75780
O632        O  0.79542723  0.33432080  0.34270007    -0.83290
Mg633      Mg  0.70449183  0.26168157  0.17528149     1.57960
C634        C  0.85350139  0.17686755  0.31806322     0.92090
O635        O  0.67266426  0.21490912  0.15221753    -0.81550
H636        H  0.74625466  0.14932601  0.27550509    -0.06900
C637        C  0.82544975  0.27785811  0.26123153     0.87030
O638        O  0.69292573  0.26424716  0.30932024    -0.76060
O639        O  0.74931309  0.22953630  0.18561895    -0.88830
O640        O  0.84726368  0.17300054  0.28530434    -0.81640
C641        C  0.81861677  0.14773095  0.17626004     0.92210
C642        C  0.67709253  0.18220114  0.14583562     0.92060
Mg643      Mg  0.79498191  0.23841865  0.32381271     1.57950
O644        O  0.82653095  0.28507025  0.34699998    -0.81560
O645        O  0.76497026  0.18921419  0.30563617    -0.75800
O646        O  0.78631312  0.15503270  0.17104973    -0.81640
O647        O  0.65908142  0.29817285  0.16342426    -0.83350
O648        O  0.71232741  0.34501254  0.32871822    -0.81670
C649        C  0.76073737  0.17379259  0.27627795     0.86500
O650        O  0.75007030  0.27046463  0.31346767    -0.88810
O651        O  0.81347367  0.24935354  0.27152595    -0.88920
O652        O  0.80927619  0.30674102  0.26614836    -0.75970
Mg653      Mg  0.73956238  0.17687914  0.20313988     1.57970
O654        O  0.83546290  0.15925724  0.20279404    -0.83350
H655        H  0.64968168  0.22253577  0.25270391    -0.07070
O656        O  0.72809952  0.31367860  0.25093658    -0.88620
H657        H  0.75377732  0.35061556  0.22365121    -0.06900
H658        H  0.72198067  0.24440230  0.34948380    -0.07070
C659        C  0.73907417  0.32627857  0.22297463     0.86470
C660        C  0.67407253  0.22253108  0.23813527     0.87060
C661        C  0.72186454  0.25946182  0.32535008     0.87110
H662        H  0.84982645  0.27807069  0.24664051    -0.07050
O663        O  0.80649864  0.23572610  0.18976040    -0.76080
Mg664      Mg  0.75969366  0.32333483  0.29652684     1.58000
H665        H  0.77745677  0.25541332  0.14951066    -0.07070
C666        C  0.64637018  0.32348716  0.18126059     0.92090
O667        O  0.66400964  0.34065728  0.29626715    -0.83310
C668        C  0.67987854  0.35194035  0.32340161     0.92150
O669        O  0.70362713  0.16537741  0.15734478    -0.83290
Mg670      Mg  0.82398180  0.20490917  0.23885327     1.58180
O671        O  0.65273420  0.32722565  0.21398728    -0.81630
O672        O  0.84050705  0.20212995  0.33576349    -0.83320
O673        O  0.27680641  0.24314319  0.18757797    -0.88910
C674        C  0.32281883  0.23494121  0.28361502     0.87120
Mg675      Mg  0.24976227  0.28960870  0.17144274     1.58150
O676        O  0.24406275  0.18778763  0.27497324    -0.88640
O677        O  0.26608471  0.18684341  0.19480072    -0.75970
C678        C  0.14835247  0.33230229  0.30707524     0.92170
O679        O  0.31353970  0.30356160  0.23364160    -0.75780
O680        O  0.16407992  0.34593744  0.28095942    -0.83290
Mg681      Mg  0.32841716  0.25047177  0.20876135     1.57960
C682        C  0.16782416  0.19193698  0.35215704     0.92090
O683        O  0.34856927  0.19954980  0.18267677    -0.81550
H684        H  0.21506758  0.15152614  0.25025162    -0.06900
C685        C  0.23671697  0.28363293  0.32160650     0.87030
O686        O  0.19683078  0.26474973  0.18657997    -0.76060
O687        O  0.31181997  0.22339360  0.25524142    -0.88830
O688        O  0.20010775  0.18375884  0.34796686    -0.81640
C689        C  0.30828736  0.14657120  0.33106291     0.92210
C690        C  0.35344672  0.16746429  0.19123541     0.92060
Mg691      Mg  0.17285649  0.24857526  0.28887073     1.57950
O692        O  0.15205735  0.29971106  0.31452363    -0.81560
O693        O  0.18798803  0.19543857  0.26404792    -0.75800
O694        O  0.31677794  0.15156598  0.29902216    -0.81640
O695        O  0.34675774  0.28098326  0.16092837    -0.83350
O696        O  0.18553806  0.34837420  0.19952488    -0.81670
C697        C  0.21583633  0.17696476  0.26295050     0.86500
O698        O  0.18954405  0.27573680  0.24273194    -0.88810
O699        O  0.22451967  0.25553008  0.31057501    -0.88920
O700        O  0.23598724  0.31164205  0.30329124    -0.75970
Mg701      Mg  0.29078182  0.17165884  0.24799049     1.57970
O702        O  0.28113137  0.16040393  0.34478852    -0.83350
H703        H  0.25242357  0.21424628  0.15100406    -0.07070
O704        O  0.25732487  0.31066336  0.22315823    -0.88620
H705        H  0.28622006  0.34731861  0.24741625    -0.06900
H706        H  0.15302438  0.25127632  0.21386793    -0.07070
C707        C  0.28556072  0.32180518  0.23486223     0.86470
C708        C  0.26497267  0.21488234  0.17651362     0.87060
C709        C  0.17850767  0.26383771  0.21451360     0.87110
H710        H  0.24934331  0.28411354  0.34708134    -0.07050
O711        O  0.30455079  0.23335439  0.31157934    -0.76080
Mg712      Mg  0.21128472  0.32728832  0.25033075     1.58000
H713        H  0.34828757  0.24751941  0.28446845    -0.07070
C714        C  0.33274324  0.30773755  0.14648416     0.92090
O715        O  0.21922137  0.33715305  0.15332215    -0.83310
C716        C  0.19291301  0.35243757  0.16702144     0.92150
O717        O  0.33889891  0.15364341  0.21800014    -0.83290
Mg718      Mg  0.25128783  0.20879393  0.32680387     1.58180
O719        O  0.30055783  0.31583800  0.15103465    -0.81630
O720        O  0.15420038  0.21804254  0.33627508    -0.83320
O721        O  0.77494478  0.74416187  0.68896890    -0.88910
C722        C  0.82133925  0.73681010  0.78448211     0.87120
Mg723      Mg  0.74763191  0.79055316  0.67275833     1.58150
O724        O  0.74264767  0.68956577  0.77634073    -0.88640
O725        O  0.76399887  0.68796097  0.69617974    -0.75970
C726        C  0.64662155  0.83317509  0.80884327     0.92170
O727        O  0.81175018  0.80465315  0.73450168    -0.75780
O728        O  0.66268337  0.84794588  0.78346491    -0.83290
Mg729      Mg  0.82682243  0.75145144  0.70984327     1.57960
C730        C  0.66673393  0.69218271  0.85196471     0.92090
O731        O  0.84775507  0.70001546  0.68434591    -0.81550
H732        H  0.71400522  0.65341269  0.75108509    -0.06900
C733        C  0.73471588  0.78523451  0.82300690     0.87030
O734        O  0.69474022  0.76618812  0.68820903    -0.76060
O735        O  0.81054133  0.72455895  0.75631970    -0.88830
O736        O  0.69946102  0.68552304  0.84923694    -0.81640
C737        C  0.80748970  0.64882765  0.83272782     0.92210
C738        C  0.85170768  0.66754155  0.69230161     0.92060
Mg739      Mg  0.67100961  0.74987523  0.78968282     1.57950
O740        O  0.64970328  0.80044056  0.81571681    -0.81560
O741        O  0.68674907  0.69730344  0.76443998    -0.75800
O742        O  0.81482335  0.65274232  0.80020517    -0.81640
O743        O  0.84468257  0.78205941  0.66200715    -0.83350
O744        O  0.68416352  0.85136141  0.70144949    -0.81670
C745        C  0.71456910  0.67879181  0.76391275     0.86500
O746        O  0.68752316  0.77798637  0.74417550    -0.88810
O747        O  0.72259198  0.75719712  0.81173757    -0.88920
O748        O  0.73431487  0.81330398  0.80480145    -0.75970
Mg749      Mg  0.78884813  0.67296051  0.74925121     1.57970
O750        O  0.78083554  0.66361726  0.84636421    -0.83350
H751        H  0.75046142  0.71538774  0.65237552    -0.07070
O752        O  0.75552220  0.81239905  0.72431273    -0.88620
H753        H  0.78496444  0.84868023  0.74845293    -0.06900
H754        H  0.65065527  0.75384457  0.71552109    -0.07070
C755        C  0.78395634  0.82318811  0.73587806     0.86470
C756        C  0.76302596  0.71596659  0.67787892     0.87060
C757        C  0.67631990  0.76603672  0.71605885     0.87110
H758        H  0.74717299  0.78554803  0.84856833    -0.07050
O759        O  0.80291609  0.73596648  0.81236341    -0.76080
Mg760      Mg  0.70972317  0.82946407  0.75206091     1.58000
H761        H  0.84671560  0.74958628  0.78512974    -0.07070
C762        C  0.83048853  0.80835744  0.64680327     0.92090
O763        O  0.71664585  0.83780012  0.65444788    -0.83310
C764        C  0.69115992  0.85404002  0.66875376     0.92150
O765        O  0.83612631  0.65423319  0.71868395    -0.83290
Mg766      Mg  0.75007950  0.71107595  0.82801627     1.58180
O767        O  0.79823018  0.81608867  0.65146522    -0.81630
O768        O  0.65223325  0.71784183  0.83606761    -0.83320
C769        C  0.85405382  0.10539092  0.09280176    -0.09720
C770        C  0.87617456  0.07914770  0.10686434     0.06480
C771        C  0.87837502  0.07576681  0.14403541    -0.03490
C772        C  0.85909553  0.09824987  0.16566003    -0.07940
C773        C  0.83718433  0.12425089  0.15157872     0.05590
C774        C  0.83462084  0.12777547  0.11475153    -0.02960
Br775      Br  0.80718117  0.16428388  0.09310209    -0.02660
H776        H  0.85206386  0.10883987  0.06458896     0.09500
H777        H  0.86132343  0.09542410  0.19394801     0.07520
Br778      Br  0.90797313  0.04257133  0.16833675    -0.03080
C779        C  0.13440247  0.88638988  0.09443610    -0.09720
C780        C  0.10260205  0.87314009  0.08133110     0.06480
C781        C  0.09216092  0.83880666  0.09058961    -0.03490
C782        C  0.11369784  0.81825212  0.11226876    -0.07940
C783        C  0.14570906  0.83133757  0.12549638     0.05590
C784        C  0.15568499  0.86622096  0.11672008    -0.02960
Br785      Br  0.19646510  0.88933654  0.13574272    -0.02660
H786        H  0.14230602  0.91303934  0.08802619     0.09500
H787        H  0.10542899  0.79168442  0.11847097     0.07520
Br788      Br  0.04977488  0.81791581  0.07283502    -0.03080
C789        C  0.10056151  0.09380604  0.84969354    -0.09720
C790        C  0.08099111  0.10686543  0.87820431     0.06480
C791        C  0.08375939  0.14299159  0.88674692    -0.03490
C792        C  0.10491194  0.16512031  0.86655103    -0.07940
C793        C  0.12416903  0.15236244  0.83778722     0.05590
C794        C  0.12201292  0.11609758  0.82949684    -0.02960
Br795      Br  0.14910020  0.09476266  0.79257493    -0.02660
H796        H  0.09917613  0.06611624  0.84304274     0.09500
H797        H  0.10647337  0.19267964  0.87370250     0.07520
Br798      Br  0.06169646  0.16394706  0.92715865    -0.03080
C799        C  0.12503671  0.92228204  0.86116899    -0.09720
C800        C  0.12701029  0.91916294  0.89798652     0.06480
C801        C  0.15058703  0.89418491  0.91247714    -0.03490
C802        C  0.17102673  0.87323568  0.89022845    -0.07940
C803        C  0.16891380  0.87626591  0.85341778     0.05590
C804        C  0.14554107  0.90140265  0.83894713    -0.02960
Br805      Br  0.14073430  0.91029076  0.78937302    -0.02660
H806        H  0.10726176  0.94114872  0.84931743     0.09500
H807        H  0.18870334  0.85423685  0.90202085     0.07520
Br808      Br  0.15765929  0.88734756  0.96213562    -0.03080
C809        C  0.88879001  0.17035117  0.87358850    -0.09720
C810        C  0.85199081  0.16780133  0.87594302     0.06480
C811        C  0.83742627  0.14346515  0.90015059    -0.03490
C812        C  0.85957589  0.12287803  0.92111321    -0.07940
C813        C  0.89635905  0.12544739  0.91875707     0.05590
C814        C  0.91092739  0.14961360  0.89441070    -0.02960
Br815      Br  0.96055878  0.15709739  0.88831133    -0.02660
H816        H  0.90068487  0.18860556  0.85521820     0.09500
H817        H  0.84772207  0.10446301  0.93935068     0.07520
Br818      Br  0.78779739  0.13687161  0.90730467    -0.03080
C819        C  0.93031146  0.86361641  0.13884438    -0.09720
C820        C  0.91683399  0.89480346  0.12405254     0.06480
C821        C  0.88178548  0.90464546  0.13198183    -0.03490
C822        C  0.86173000  0.88399747  0.15490864    -0.07940
C823        C  0.87534520  0.85299210  0.16953960     0.05590
C824        C  0.90990218  0.84271557  0.16122858    -0.02960
Br825      Br  0.93117732  0.80146140  0.18121882    -0.02660
H826        H  0.95706560  0.85557112  0.13336272     0.09500
H827        H  0.83490354  0.89169809  0.16060151     0.07520
Br828      Br  0.85839364  0.94432010  0.11091251    -0.03080
C829        C  0.61764876  0.10973005  0.11103649    -0.09720
C830        C  0.60275922  0.12602910  0.08157370     0.06480
C831        C  0.61087635  0.16138355  0.07418482    -0.03490
C832        C  0.63450791  0.17970264  0.09580884    -0.07940
C833        C  0.65064111  0.16297429  0.12463755     0.05590
C834        C  0.64134299  0.12778443  0.13257762    -0.02960
Br835      Br  0.65865612  0.10324204  0.17329563    -0.02660
H836        H  0.61112005  0.08262110  0.11706909     0.09500
H837        H  0.64095621  0.20676137  0.08954914     0.07520
Br838      Br  0.59045730  0.18531408  0.03472577    -0.03080
C839        C  0.36894333  0.14305794  0.13287757    -0.09720
C840        C  0.37623107  0.14550510  0.16898522     0.06480
C841        C  0.40482759  0.12662297  0.18316026    -0.03490
C842        C  0.42562310  0.10567425  0.16117186    -0.07940
C843        C  0.41810444  0.10309355  0.12518311     0.05590
C844        C  0.38945880  0.12174620  0.11103295    -0.02960
Br845      Br  0.37722769  0.11836381  0.06217155    -0.02660
H846        H  0.34688525  0.15729387  0.12177446     0.09500
H847        H  0.44786612  0.09160613  0.17210292     0.07520
Br848      Br  0.41771052  0.13024637  0.23184391    -0.03080
C849        C  0.34731648  0.90081572  0.08799474    -0.09720
C850        C  0.37599103  0.91783218  0.10378392     0.06480
C851        C  0.38236862  0.91227077  0.13995902    -0.03490
C852        C  0.35978709  0.89082184  0.15952850    -0.07940
C853        C  0.33065817  0.87404205  0.14397377     0.05590
C854        C  0.32474337  0.87918948  0.10743796    -0.02960
Br855      Br  0.28698112  0.85789279  0.08135321    -0.02660
H856        H  0.34215669  0.90460060  0.06021440     0.09500
H857        H  0.36548612  0.88701068  0.18718327     0.07520
Br858      Br  0.42269419  0.93098427  0.16404019    -0.03080
C859        C  0.63896987  0.87316361  0.85955718    -0.09720
C860        C  0.62396066  0.85482044  0.83132841     0.06480
C861        C  0.58765603  0.85750197  0.82500629    -0.03490
C862        C  0.56676818  0.87833897  0.84699770    -0.07940
C863        C  0.58178159  0.89710348  0.87503995     0.05590
C864        C  0.61819120  0.89425839  0.88140240    -0.02960
Br865      Br  0.64036407  0.91683595  0.92076887    -0.02660
H866        H  0.66688926  0.87089019  0.86472331     0.09500
H867        H  0.53882272  0.88032662  0.84188276     0.07520
Br868      Br  0.56582790  0.83368815  0.78626247    -0.03080
C869        C  0.63773145  0.13886546  0.86925185    -0.09720
C870        C  0.66818566  0.12477164  0.85407983     0.06480
C871        C  0.67701784  0.08934190  0.86018757    -0.03490
C872        C  0.65509796  0.06829587  0.88098351    -0.07940
C873        C  0.62480330  0.08246669  0.89653174     0.05590
C874        C  0.61616065  0.11805759  0.89060970    -0.02960
Br875      Br  0.57438343  0.13889758  0.90976118    -0.02660
H876        H  0.63079206  0.16612839  0.86453788     0.09500
H877        H  0.66195643  0.04097473  0.88544591     0.07520
Br878      Br  0.71875185  0.06886740  0.84067751    -0.03080
C879        C  0.35045576  0.82944266  0.91199273    -0.09720
C880        C  0.35357197  0.83172247  0.87534160     0.06480
C881        C  0.37812548  0.85514813  0.86058426    -0.03490
C882        C  0.39938082  0.87572866  0.88250785    -0.07940
C883        C  0.39631868  0.87365735  0.91928947     0.05590
C884        C  0.37165592  0.85004035  0.93402273    -0.02960
Br885      Br  0.36737105  0.84300874  0.98388290    -0.02660
H886        H  0.33189090  0.81114402  0.92350517     0.09500
H887        H  0.41786675  0.89395219  0.87074975     0.07520
Br888      Br  0.38234382  0.86092564  0.81060669    -0.03080
C889        C  0.14897063  0.10259579  0.59268054    -0.09720
C890        C  0.12287001  0.08007520  0.60610452     0.06480
C891        C  0.11615684  0.08038790  0.64278064    -0.03490
C892        C  0.13573145  0.10215341  0.66486373    -0.07940
C893        C  0.16204375  0.12427114  0.65160885     0.05590
C894        C  0.16851026  0.12457344  0.61499296    -0.02960
Br895      Br  0.20178840  0.15594642  0.59349787    -0.02660
H896        H  0.15419285  0.10320803  0.56468060     0.09500
H897        H  0.13013575  0.10187005  0.69281126     0.07520
Br898      Br  0.07925002  0.05386350  0.66507060    -0.03080
C899        C  0.09366186  0.15978580  0.41184411    -0.09720
C900        C  0.10423726  0.12505737  0.41829107     0.06480
C901        C  0.13557803  0.11255471  0.40313474    -0.03490
C902        C  0.15588097  0.13483944  0.38205455    -0.07940
C903        C  0.14559696  0.16984807  0.37557222     0.05590
C904        C  0.11410101  0.18234848  0.39109957    -0.02960
Br905      Br  0.09810635  0.23020522  0.38717580    -0.02660
H906        H  0.06972036  0.16966200  0.42369548     0.09500
H907        H  0.17956748  0.12442528  0.37017019     0.07520
Br908      Br  0.15062070  0.06458230  0.40847470    -0.03080
C909        C  0.88861503  0.83354248  0.63116566    -0.09720
C910        C  0.85254267  0.83091661  0.62383143     0.06480
C911        C  0.83871173  0.85010402  0.59515896    -0.03490
C912        C  0.86095033  0.87095424  0.57455986    -0.07940
C913        C  0.89717286  0.87369974  0.58178464     0.05590
C914        C  0.91087013  0.85470826  0.61090058    -0.02960
Br915      Br  0.95924741  0.85598805  0.62567982    -0.02660
H916        H  0.89963902  0.81937636  0.65332342     0.09500
H917        H  0.84957488  0.88509756  0.55258776     0.07520
Br918      Br  0.79014693  0.84805887  0.58131725    -0.03080
C919        C  0.92971124  0.11712165  0.34337626    -0.09720
C920        C  0.91794757  0.10400205  0.37579814     0.06480
C921        C  0.88460153  0.11389155  0.38833116    -0.03490
C922        C  0.86403228  0.13752968  0.36901984    -0.07940
C923        C  0.87574761  0.15092871  0.33663902     0.05590
C924        C  0.90867838  0.14003243  0.32349116    -0.02960
Br925      Br  0.92714652  0.15731551  0.27980709    -0.02660
H926        H  0.95541215  0.10969512  0.33362999     0.09500
H927        H  0.83871596  0.14549145  0.37934953     0.07520
Br928      Br  0.86678352  0.09706221  0.43247357    -0.03080
C929        C  0.07191621  0.88898531  0.65931371    -0.09720
C930        C  0.08182691  0.89464041  0.62425380     0.06480
C931        C  0.11275206  0.87903225  0.61131843    -0.03490
C932        C  0.13330523  0.85794718  0.63346579    -0.07940
C933        C  0.12374809  0.85271858  0.66873228     0.05590
C934        C  0.09273607  0.86830805  0.68163161    -0.02960
Br935      Br  0.07687628  0.86053066  0.72887669    -0.02660
H936        H  0.04793425  0.90064455  0.66931037     0.09500
H937        H  0.15707931  0.84601184  0.62329045     0.07520
Br938      Br  0.12767289  0.88577531  0.56358348    -0.03080
C939        C  0.84621270  0.86191485  0.38392338    -0.09720
C940        C  0.83012000  0.87637364  0.35405862     0.06480
C941        C  0.83641889  0.91181829  0.34536921    -0.03490
C942        C  0.85830910  0.93229974  0.36672543    -0.07940
C943        C  0.87456696  0.91797651  0.39677944     0.05590
C944        C  0.86867570  0.88207539  0.40497571    -0.02960
Br945      Br  0.89226239  0.85786833  0.44265653    -0.02660
H946        H  0.84202988  0.83443776  0.39035908     0.09500
H947        H  0.86232825  0.95969762  0.35992280     0.07520
Br948      Br  0.81434506  0.93393474  0.30568777    -0.03080
C949        C  0.09314243  0.65940718  0.15704593    -0.09720
C950        C  0.12477618  0.64512558  0.16950164     0.06480
C951        C  0.13390130  0.61050402  0.15975642    -0.03490
C952        C  0.11122724  0.59077120  0.13852162    -0.07940
C953        C  0.07918149  0.60473890  0.12623484     0.05590
C954        C  0.07029429  0.63975276  0.13586811    -0.02960
Br955      Br  0.02737055  0.66292329  0.12238311    -0.02660
H956        H  0.08583000  0.68599441  0.16431044     0.09500
H957        H  0.11916278  0.56440826  0.13116286     0.07520
Br958      Br  0.17810639  0.58949664  0.17233459    -0.03080
C959        C  0.15252366  0.40227629  0.08924484    -0.09720
C960        C  0.12363070  0.41863926  0.10527832     0.06480
C961        C  0.11758055  0.41279411  0.14142871    -0.03490
C962        C  0.14063240  0.39158547  0.16075266    -0.07940
C963        C  0.16991867  0.37535553  0.14491702     0.05590
C964        C  0.17556303  0.38089349  0.10840661    -0.02960
Br965      Br  0.21356436  0.36049274  0.08197597    -0.02660
H966        H  0.15745688  0.40636476  0.06147193     0.09500
H967        H  0.13514747  0.38746540  0.18840084     0.07520
Br968      Br  0.07704880  0.43072332  0.16566846    -0.03080
C969        C  0.13613415  0.38935211  0.91294408    -0.09720
C970        C  0.10344798  0.37441941  0.92068312     0.06480
C971        C  0.09489220  0.34137277  0.90617189    -0.03490
C972        C  0.11935932  0.32383073  0.88470563    -0.07940
C973        C  0.15235017  0.33891729  0.87680869     0.05590
C974        C  0.16029762  0.37238863  0.89128938    -0.02960
Br975      Br  0.20352673  0.39732503  0.88411983    -0.02660
H976        H  0.14290073  0.41491834  0.92363546     0.09500
H977        H  0.11238210  0.29834452  0.87403531     0.07520
Br978      Br  0.05113528  0.31833619  0.91615659    -0.03080
C979        C  0.83820116  0.65051486  0.09810669    -0.09720
C980        C  0.85428603  0.66856381  0.12601745     0.06480
C981        C  0.89085296  0.66441510  0.13115948    -0.03490
C982        C  0.91035760  0.64330829  0.10820384    -0.07940
C983        C  0.89443023  0.62544257  0.07993284     0.05590
C984        C  0.85758652  0.62915784  0.07524476    -0.02960
Br985      Br  0.83094270  0.60586047  0.03905672    -0.02660
H986        H  0.81016929  0.65315562  0.09382018     0.09500
H987        H  0.93830052  0.64061823  0.11293938     0.07520
Br988      Br  0.91586428  0.68466930  0.17018069    -0.03080
C989        C  0.85475520  0.60373405  0.83801066    -0.09720
C990        C  0.83060060  0.62614809  0.85481092     0.06480
C991        C  0.82988754  0.62663949  0.89206918    -0.03490
C992        C  0.85199492  0.60428408  0.91119702    -0.07940
C993        C  0.87569306  0.58143156  0.89437903     0.05590
C994        C  0.87731259  0.58185160  0.85717632    -0.02960
Br995      Br  0.91073158  0.55513687  0.83025341    -0.02660
H996        H  0.85638910  0.60325897  0.80957042     0.09500
H997        H  0.85060199  0.60496243  0.93964922     0.07520
Br998      Br  0.80106408  0.65801978  0.91933541    -0.03080
C999        C  0.90770971  0.36199428  0.88619652    -0.09720
C1000       C  0.91830197  0.39528799  0.87435140     0.06480
C1001       C  0.90705603  0.40708869  0.84106829    -0.03490
C1002       C  0.88582053  0.38548718  0.82024458    -0.07940
C1003       C  0.87497431  0.35203034  0.83196672     0.05590
C1004       C  0.88593859  0.34053364  0.86576130    -0.02960
Br1005     Br  0.87122527  0.29704543  0.88718571    -0.02660
H1006       H  0.91576700  0.35292179  0.91200456     0.09500
H1007       H  0.87800191  0.39497667  0.79453429     0.07520
Br1008     Br  0.92137135  0.45152920  0.82169516    -0.03080
C1009       C  0.34340978  0.07415051  0.38984358    -0.09720
C1010       C  0.37546621  0.08893924  0.40071272     0.06480
C1011       C  0.38605665  0.12166680  0.38666235    -0.03490
C1012       C  0.36418976  0.13945577  0.36305320    -0.07940
C1013       C  0.33154199  0.12540763  0.35348217     0.05590
C1014       C  0.32126000  0.09236398  0.36666990    -0.02960
Br1015     Br  0.27748717  0.07115279  0.35336537    -0.02660
H1016       H  0.33517139  0.04885310  0.40010551     0.09500
H1017       H  0.37237162  0.16473574  0.35267660     0.07520
Br1018     Br  0.43062434  0.14271836  0.39768969    -0.03080
C1019       C  0.60781665  0.82690859  0.37014600    -0.09720
C1020       C  0.64429722  0.83045090  0.37531760     0.06480
C1021       C  0.65634504  0.85556038  0.40011033    -0.03490
C1022       C  0.63202685  0.87634879  0.41851469    -0.07940
C1023       C  0.59573491  0.87316084  0.41245504     0.05590
C1024       C  0.58373251  0.84783453  0.38821761    -0.02960
Br1025     Br  0.53467944  0.83917217  0.37965350    -0.02660
H1026       H  0.59767143  0.80789299  0.35151690     0.09500
H1027       H  0.64158934  0.89564009  0.43719028     0.07520
Br1028     Br  0.70517059  0.86276890  0.41092020    -0.03080
C1029       C  0.62214313  0.09128937  0.63478689    -0.09720
C1030       C  0.58700411  0.09892091  0.62597073     0.06480
C1031       C  0.57222709  0.13107659  0.63811995    -0.03490
C1032       C  0.59240532  0.15388452  0.65896284    -0.07940
C1033       C  0.62696760  0.14531287  0.66829489     0.05590
C1034       C  0.64200824  0.11404246  0.65551169    -0.02960
Br1035     Br  0.69037129  0.10197869  0.66386012    -0.02660
H1036       H  0.63460400  0.06742974  0.62546622     0.09500
H1037       H  0.58083757  0.17813073  0.66849641     0.07520
Br1038     Br  0.52514234  0.14630024  0.62774575    -0.03080
C1039       C  0.64818513  0.85598860  0.62067502    -0.09720
C1040       C  0.66758489  0.87440295  0.64586164     0.06480
C1041       C  0.66424434  0.91116920  0.64812813    -0.03490
C1042       C  0.64250750  0.92911839  0.62426659    -0.07940
C1043       C  0.62337087  0.91079475  0.59827043     0.05590
C1044       C  0.62578007  0.87348234  0.59743692    -0.02960
Br1045     Br  0.59845870  0.84368784  0.56694638    -0.02660
H1046       H  0.65013801  0.82754624  0.61941498     0.09500
H1047       H  0.64097041  0.95753854  0.62584926     0.07520
Br1048     Br  0.69002535  0.93786228  0.68228958    -0.03080
C1049       C  0.33899474  0.14289039  0.59715073    -0.09720
C1050       C  0.34945488  0.16411391  0.62543181     0.06480
C1051       C  0.38546715  0.16655086  0.63387385    -0.03490
C1052       C  0.41016720  0.14750045  0.61440431    -0.07940
C1053       C  0.39981820  0.12608122  0.58610732     0.05590
C1054       C  0.36370531  0.12416659  0.57731676    -0.02960
Br1055     Br  0.34576552  0.09469545  0.54035558    -0.02660
H1056       H  0.31136406  0.14068545  0.59058343     0.09500
H1057       H  0.43763723  0.14916489  0.62171661     0.07520
Br1058     Br  0.40223617  0.19313151  0.67344098    -0.03080
C1059       C  0.36129515  0.89038706  0.33432319    -0.09720
C1060       C  0.37469992  0.85649376  0.32858224     0.06480
C1061       C  0.40719800  0.84725187  0.34378891    -0.03490
C1062       C  0.42498942  0.87147350  0.36520686    -0.07940
C1063       C  0.41115251  0.90528328  0.37163016     0.05590
C1064       C  0.37901976  0.91474018  0.35528412    -0.02960
Br1065     Br  0.35789794  0.96068693  0.35850870    -0.02660
H1066       H  0.33655289  0.89806159  0.32244099     0.09500
H1067       H  0.44979214  0.86373683  0.37687273     0.07520
Br1068     Br  0.42984125  0.80327705  0.33395334    -0.03080
C1069       C  0.38556902  0.61441535  0.88599930    -0.09720
C1070       C  0.41852036  0.60326887  0.87381973     0.06480
C1071       C  0.42994086  0.61369482  0.84016868    -0.03490
C1072       C  0.40825423  0.63476627  0.81904947    -0.07940
C1073       C  0.37553651  0.64638731  0.83145141     0.05590
C1074       C  0.36423666  0.63615438  0.86522632    -0.02960
Br1075     Br  0.31950631  0.65049779  0.88358437    -0.02660
H1076       H  0.37661947  0.60653861  0.91188546     0.09500
H1077       H  0.41707419  0.64238319  0.79304722     0.07520
Br1078     Br  0.47462955  0.59916959  0.82189967    -0.03080
C1079       C  0.38489738  0.34216684  0.06906311    -0.09720
C1080       C  0.39676522  0.37455377  0.08220857     0.06480
C1081       C  0.38731407  0.38488981  0.11649315    -0.03490
C1082       C  0.36600061  0.36294681  0.13699984    -0.07940
C1083       C  0.35455449  0.33036207  0.12401125     0.05590
C1084       C  0.36425747  0.31987369  0.08989300    -0.02960
Br1085     Br  0.34935101  0.27566178  0.07064695    -0.02660
H1086       H  0.39202582  0.33405650  0.04270108     0.09500
H1087       H  0.35857146  0.37118377  0.16324523     0.07520
Br1088     Br  0.40191398  0.42919609  0.13584114    -0.03080
C1089       C  0.68229107  0.61054266  0.11401736    -0.09720
C1090       C  0.66799812  0.62622863  0.14436474     0.06480
C1091       C  0.63201241  0.62083536  0.15181177    -0.03490
C1092       C  0.61203597  0.59814716  0.13091812    -0.07940
C1093       C  0.62653475  0.58209765  0.10114704     0.05590
C1094       C  0.66174543  0.58910577  0.09217691    -0.02960
Br1095     Br  0.68333377  0.56904709  0.05123196    -0.02660
H1096       H  0.70962110  0.61477663  0.10727590     0.09500
H1097       H  0.58454794  0.59406472  0.13717545     0.07520
Br1098     Br  0.60727019  0.64668760  0.18719035    -0.03080
C1099       C  0.63608067  0.36358823  0.13089250    -0.09720
C1100       C  0.62425043  0.34967116  0.16299461     0.06480
C1101       C  0.59135340  0.36042390  0.17630506    -0.03490
C1102       C  0.57051147  0.38388455  0.15693908    -0.07940
C1103       C  0.58238096  0.39756832  0.12481456     0.05590
C1104       C  0.61562422  0.38765303  0.11201094    -0.02960
Br1105     Br  0.63329320  0.40472869  0.06790363    -0.02660
H1106       H  0.66134150  0.35564045  0.12041667     0.09500
H1107       H  0.54479240  0.39115687  0.16675895     0.07520
Br1108     Br  0.57248844  0.34195240  0.21928557    -0.03080
C1109       C  0.65396475  0.66497169  0.90977199    -0.09720
C1110       C  0.64492635  0.66938867  0.87433678     0.06480
C1111       C  0.61509602  0.65211887  0.86086401    -0.03490
C1112       C  0.59467256  0.63093807  0.88293793    -0.07940
C1113       C  0.60349514  0.62646238  0.91858902     0.05590
C1114       C  0.63341050  0.64409636  0.93205266    -0.02960
Br1115     Br  0.64655497  0.64298111  0.98087687    -0.02660
H1116       H  0.67670148  0.67849993  0.92035375     0.09500
H1117       H  0.57216240  0.61736170  0.87195308     0.07520
Br1118     Br  0.60249952  0.65480681  0.81201776    -0.03080
C1119       C  0.34394046  0.42837037  0.88447516    -0.09720
C1120       C  0.37713119  0.41722583  0.89592394     0.06480
C1121       C  0.39119257  0.38554607  0.88299465    -0.03490
C1122       C  0.37178507  0.36523273  0.85924551    -0.07940
C1123       C  0.33833690  0.37610604  0.84787906     0.05590
C1124       C  0.32456097  0.40817535  0.86052457    -0.02960
Br1125     Br  0.28156446  0.42767841  0.84297630    -0.02660
H1126       H  0.33348770  0.45330964  0.89349428     0.09500
H1127       H  0.38300372  0.34094967  0.84939861     0.07520
Br1128     Br  0.43769958  0.37025563  0.89526712    -0.03080
C1129       C  0.09693299  0.41008216  0.34549041    -0.09720
C1130       C  0.08192389  0.39468727  0.37547407     0.06480
C1131       C  0.08925053  0.35904183  0.38293677    -0.03490
C1132       C  0.11057439  0.33951592  0.36021378    -0.07940
C1133       C  0.12537077  0.35462833  0.32977845     0.05590
C1134       C  0.11828186  0.39066160  0.32265153    -0.02960
Br1135     Br  0.13599934  0.41590748  0.28249634    -0.02660
H1136       H  0.09164824  0.43746173  0.33946738     0.09500
H1137       H  0.11593900  0.31232140  0.36685087     0.07520
Br1138     Br  0.07318233  0.33595441  0.42496006    -0.03080
C1139       C  0.90381995  0.58936438  0.65533037    -0.09720
C1140       C  0.91856839  0.60419583  0.62493637     0.06480
C1141       C  0.91079021  0.63960732  0.61671842    -0.03490
C1142       C  0.88934952  0.65945332  0.63909695    -0.07940
C1143       C  0.87481647  0.64491054  0.66992944     0.05590
C1144       C  0.88233287  0.60910300  0.67781493    -0.02960
Br1145     Br  0.86507165  0.58460808  0.71862876    -0.02660
H1146       H  0.90943283  0.56219484  0.66196502     0.09500
H1147       H  0.88369765  0.68645119  0.63188712     0.07520
Br1148     Br  0.92640274  0.66193532  0.57411329    -0.03080
C1149       C  0.09683799  0.66117826  0.58308900    -0.09720
C1150       C  0.10415918  0.62510421  0.58104354     0.06480
C1151       C  0.13246363  0.61113439  0.60037699    -0.03490
C1152       C  0.15314047  0.63330648  0.62122289    -0.07940
C1153       C  0.14601671  0.66956298  0.62338142     0.05590
C1154       C  0.11762818  0.68352287  0.60371961    -0.02960
Br1155     Br  0.10717555  0.73299196  0.60183004    -0.02660
H1156       H  0.07530380  0.67212970  0.56796410     0.09500
H1157       H  0.17445288  0.62198316  0.63638161     0.07520
Br1158     Br  0.14250658  0.56160144  0.60080454    -0.03080
C1159       C  0.86628027  0.37924746  0.65422007    -0.09720
C1160       C  0.83044700  0.37591809  0.64559071     0.06480
C1161       C  0.81756804  0.39402527  0.61563013    -0.03490
C1162       C  0.84029901  0.41466139  0.59531449    -0.07940
C1163       C  0.87579542  0.41810445  0.60431042     0.05590
C1164       C  0.88889901  0.39992751  0.63379549    -0.02960
Br1165     Br  0.93793490  0.40059953  0.64570038    -0.02660
H1166       H  0.87698542  0.36512232  0.67655163     0.09500
H1167       H  0.83005172  0.42866013  0.57267755     0.07520
Br1168     Br  0.76914380  0.39361496  0.60159294    -0.03080
C1169       C  0.13291065  0.61438905  0.40617273    -0.09720
C1170       C  0.12750979  0.57907643  0.39635752     0.06480
C1171       C  0.14376820  0.56653457  0.36525153    -0.03490
C1172       C  0.16429387  0.58928960  0.34477256    -0.07940
C1173       C  0.16971143  0.62433780  0.35488105     0.05590
C1174       C  0.15367969  0.63692590  0.38577391    -0.02960
Br1175     Br  0.15730535  0.68531214  0.39992176    -0.02660
H1176       H  0.12034177  0.62482790  0.42950060     0.09500
H1177       H  0.17674900  0.57934057  0.32116124     0.07520
Br1178     Br  0.14106473  0.51836904  0.34996455    -0.03080
C1179       C  0.90252196  0.34192570  0.41039465    -0.09720
C1180       C  0.89470319  0.37701790  0.41861455     0.06480
C1181       C  0.86395505  0.39235394  0.40495740    -0.03490
C1182       C  0.84103527  0.37238477  0.38445342    -0.07940
C1183       C  0.84792250  0.33678098  0.37669247     0.05590
C1184       C  0.87951919  0.32163000  0.38979062    -0.02960
Br1185     Br  0.89359896  0.27380085  0.38112765    -0.02660
H1186       H  0.92632434  0.33004847  0.42061473     0.09500
H1187       H  0.81765187  0.38516566  0.37440786     0.07520
Br1188     Br  0.85290664  0.44125155  0.41176280    -0.03080
C1189       C  0.34371609  0.63525181  0.38494695    -0.09720
C1190       C  0.35471102  0.66989240  0.37767332     0.06480
C1191       C  0.38687375  0.68173070  0.39231320    -0.03490
C1192       C  0.40743103  0.65890411  0.41260083    -0.07940
C1193       C  0.39626732  0.62455035  0.41978479     0.05590
C1194       C  0.36405226  0.61272002  0.40583676    -0.02960
Br1195     Br  0.34764829  0.56538644  0.41264775    -0.02660
H1196       H  0.31942364  0.62532855  0.37387580     0.09500
H1197       H  0.43190079  0.66838412  0.42370255     0.07520
Br1198     Br  0.40358653  0.72918379  0.38822621    -0.03080
C1199       C  0.63244664  0.38940502  0.59985211    -0.09720
C1200       C  0.60362809  0.37484062  0.58217295     0.06480
C1201       C  0.59492561  0.33925469  0.58757665    -0.03490
C1202       C  0.61601573  0.31840196  0.60932206    -0.07940
C1203       C  0.64533983  0.33272594  0.62671146     0.05590
C1204       C  0.65272645  0.36898787  0.62272689    -0.02960
Br1205     Br  0.68730881  0.39320753  0.65046423    -0.02660
H1206       H  0.63839941  0.41714077  0.59683067     0.09500
H1207       H  0.60956204  0.29080149  0.61241924     0.07520
Br1208     Br  0.55533753  0.31762490  0.56492528    -0.03080
C1209       C  0.41869269  0.35804323  0.61450774    -0.09720
C1210       C  0.42058647  0.39360731  0.62435775     0.06480
C1211       C  0.40127326  0.40503764  0.65397345    -0.03490
C1212       C  0.38046352  0.38096536  0.67265052    -0.07940
C1213       C  0.37810903  0.34551856  0.66223331     0.05590
C1214       C  0.39786587  0.33412212  0.63289378    -0.02960
Br1215     Br  0.39920804  0.28609220  0.61687352    -0.02660
H1216       H  0.43333775  0.34865538  0.59195215     0.09500
H1217       H  0.36561517  0.39018067  0.69513902     0.07520
Br1218     Br  0.40308185  0.45250937  0.67124274    -0.03080
C1219       C  0.57241101  0.60950167  0.34158247    -0.09720
C1220       C  0.58200025  0.60479407  0.37678101     0.06480
C1221       C  0.61236033  0.62141193  0.38984589    -0.03490
C1222       C  0.63288335  0.64228879  0.36743964    -0.07940
C1223       C  0.62366275  0.64653419  0.33190137     0.05590
C1224       C  0.59291139  0.63023797  0.31918928    -0.02960
Br1225     Br  0.57610896  0.63755443  0.27242951    -0.02660
H1226       H  0.54871774  0.59724150  0.33157418     0.09500
H1227       H  0.65629318  0.65490366  0.37766181     0.07520
Br1228     Br  0.62642194  0.61641064  0.43806429    -0.03080
C1229       C  0.35013818  0.60170182  0.58868514    -0.09720
C1230       C  0.37588023  0.58086390  0.60505032     0.06480
C1231       C  0.37981316  0.58311856  0.64199289    -0.03490
C1232       C  0.35744548  0.60476243  0.66154470    -0.07940
C1233       C  0.33119307  0.62517984  0.64530869     0.05590
C1234       C  0.32812143  0.62382685  0.60813216    -0.02960
Br1235     Br  0.29585054  0.65204551  0.58117484    -0.02660
H1236       H  0.34702079  0.60085410  0.56037070     0.09500
H1237       H  0.36096405  0.60575386  0.68979987     0.07520
Br1238     Br  0.41643821  0.55952610  0.66773250    -0.03080
C1239       C  0.60592261  0.40018724  0.37121192    -0.09720
C1240       C  0.62453290  0.41865008  0.39695304     0.06480
C1241       C  0.66106003  0.41397575  0.39978856    -0.03490
C1242       C  0.67862428  0.39207626  0.37581411    -0.07940
C1243       C  0.66012627  0.37392522  0.34922044     0.05590
C1244       C  0.62297511  0.37749126  0.34796619    -0.02960
Br1245     Br  0.59269872  0.35140056  0.31694936    -0.02660
H1246       H  0.57761926  0.40305679  0.36955617     0.09500
H1247       H  0.70690548  0.38958606  0.37784951     0.07520
Br1248     Br  0.68799830  0.43807291  0.43496093    -0.03080
loop_ 
_geom_bond_atom_site_label_1 
_geom_bond_atom_site_label_2 
_geom_bond_distance 
_geom_bond_site_symmetry_2 
_ccdc_geom_bond_type 
O1           Mg3   2.132       .  S
O1           Mg9   2.147       .  S
O1           C36   1.237       .  S
C2           O15   1.237       .  S
C2           O39   1.270       .  A
C2           H41   1.081       .  S
Mg3          O32   2.142       .  S
Mg3          O47   2.311       .  S
Mg3          O43   2.253       .  S
Mg3          O14   2.299       .  S
O4          Mg46   2.145       .  S
O4          Mg29   2.131       .  S
O4           C25   1.237       .  S
O5           C36   1.271       .  A
O5          Mg29   2.295       .  S
C6            O8   1.271       .  A
C6           O20   1.276       .  A
C6         C1193   1.474       .  S
O7           C35   1.269       .  A
O7           Mg9   2.292       .  S
O8          Mg40   2.254       .  S
Mg9          O15   2.129       .  S
Mg9          O23   2.246       .  S
Mg9          O11   2.286       .  S
C10          O48   1.272       .  A
C10          O16   1.274       .  A
C10        C1220   1.466       .  S
O11          C18   1.273       .  A
H12          C25   1.081       .  S
C13          O27   1.238       .  S
C13          O28   1.271       .  A
C13          H38   1.081       .  S
O14          C37   1.271       .  A
O15         Mg29   2.155       .  S
O16         Mg46   2.305       .  S
C17          O30   1.272       .  A
C17          O22   1.275       .  A
C17        C1240   1.470       .  S
C18          O45   1.272       .  A
C18        C1200   1.466       .  S
Mg19         O26   2.133       .  S
Mg19         O27   2.147       .  S
Mg19         O20   2.312       .  S
Mg19         O21   2.299       .  S
Mg19         O48   2.264       .  S
O21          C25   1.271       .  A
O22         Mg29   2.312       .  S
O23          C42   1.272       .  A
O24          C44   1.277       .  A
O24         Mg40   2.311       .  S
O26         Mg40   2.148       .  S
O26          C37   1.237       .  S
O27         Mg46   2.136       .  S
O28         Mg40   2.298       .  S
Mg29         O45   2.256       .  S
O30         Mg46   2.258       .  S
H31          C36   1.081       .  S
O32         Mg40   2.125       .  S
O32          C35   1.236       .  S
H33          C35   1.081       .  S
H34          C37   1.081       .  S
O39         Mg46   2.294       .  S
C42          O47   1.275       .  A
C42        C1210   1.482       .  S
O43          C44   1.270       .  A
C44        C1230   1.485       .  S
O49         Mg51   2.134   1_655  S
O49         Mg57   2.150   1_655  S
O49          C84   1.237       .  S
C50          O63   1.238       .  S
C50          O87   1.271       .  A
C50          H89   1.081       .  S
Mg51         O80   2.146       .  S
Mg51         O95   2.307       .  S
Mg51         O91   2.261       .  S
Mg51         O62   2.297       .  S
O52         Mg94   2.149       .  S
O52         Mg77   2.129       .  S
O52          C73   1.237       .  S
O53          C84   1.271       .  A
O53         Mg77   2.296       .  S
C54          O56   1.273       .  A
C54          O68   1.275       .  A
C54        C1150   1.471       .  S
O55          C83   1.271       .  A
O55         Mg57   2.300       .  S
O56         Mg88   2.262       .  S
Mg57         O63   2.137   1_455  S
Mg57         O71   2.262       .  S
Mg57         O59   2.319   1_455  S
C58          O96   1.273       .  A
C58          O64   1.278       .  A
C58        C1140   1.484       .  S
O59          C66   1.276       .  A
H60          C73   1.081       .  S
C61          O75   1.237       .  S
C61          O76   1.270       .  A
C61          H86   1.081       .  S
O62          C85   1.271       .  A
O63         Mg77   2.149       .  S
O64         Mg94   2.317       .  S
C65          O78   1.273       .  A
C65          O70   1.275       .  A
C65        C1163   1.472       .  S
C66          O93   1.272       .  A
C66        C1180   1.474       .  S
Mg67         O74   2.137   1_655  S
Mg67         O75   2.150   1_655  S
Mg67         O68   2.307   1_655  S
Mg67         O69   2.294       .  S
Mg67         O96   2.265       .  S
O69          C73   1.270       .  A
O70         Mg77   2.304       .  S
O71          C90   1.272       .  A
O72          C92   1.277       .  A
O72         Mg88   2.316       .  S
O74         Mg88   2.153       .  S
O74          C85   1.237       .  S
O75         Mg94   2.131   1_455  S
O76         Mg88   2.293       .  S
Mg77         O93   2.251       .  S
O78         Mg94   2.265       .  S
H79          C84   1.081       .  S
O80         Mg88   2.137       .  S
O80          C83   1.238       .  S
H81          C83   1.081       .  S
H82          C85   1.081       .  S
O87         Mg94   2.297       .  S
C90          O95   1.276       .  A
C90        C1130   1.481       .  S
O91          C92   1.271       .  A
C92        C1170   1.487       .  S
O97         Mg99   2.141   1_556  S
O97        Mg105   2.138   1_556  S
O97         C132   1.238       .  S
C98         O111   1.237       .  S
C98         O135   1.272       .  A
C98         H137   1.081       .  S
Mg99        O128   2.138       .  S
Mg99        O143   2.310       .  S
Mg99        O139   2.263       .  S
Mg99        O110   2.300       .  S
O100       Mg142   2.142       .  S
O100       Mg125   2.132       .  S
O100        C121   1.237       .  S
O101        C132   1.273       .  A
O101       Mg125   2.308       .  S
C102        O104   1.272       .  A
C102        O116   1.274       .  A
C102       C1093   1.472       .  S
O103        C131   1.272       .  A
O103       Mg105   2.306       .  S
O104       Mg136   2.262       .  S
Mg105       O111   2.144   1_554  S
Mg105       O119   2.267       .  S
Mg105       O107   2.316   1_554  S
C106        O144   1.270       .  A
C106        O112   1.277       .  A
C106       C1113   1.482       .  S
O107        C114   1.275       .  A
H108        C121   1.081       .  S
C109        O123   1.238       .  S
C109        O124   1.271       .  A
C109        H134   1.081       .  S
O110        C133   1.271       .  A
O111       Mg125   2.139       .  S
O112       Mg142   2.311       .  S
C113        O126   1.272       .  A
C113        O118   1.276       .  A
C113       C1070   1.471       .  S
C114        O141   1.270       .  A
C114       C1120   1.468       .  S
Mg115       O122   2.131   1_556  S
Mg115       O123   2.154   1_556  S
Mg115       O116   2.300   1_556  S
Mg115       O117   2.294       .  S
Mg115       O144   2.250       .  S
O117        C121   1.270       .  A
O118       Mg125   2.317       .  S
O119        C138   1.271       .  A
O120        C140   1.275       .  A
O120       Mg136   2.313       .  S
O122       Mg136   2.148       .  S
O122        C133   1.237       .  S
O123       Mg142   2.137   1_554  S
O124       Mg136   2.295       .  S
Mg125       O141   2.255       .  S
O126       Mg142   2.267       .  S
H127        C132   1.081       .  S
O128       Mg136   2.139       .  S
O128        C131   1.238       .  S
H129        C131   1.081       .  S
H130        C133   1.081       .  S
O135       Mg142   2.305       .  S
C138        O143   1.275       .  A
C138       C1080   1.470       .  S
O139        C140   1.271       .  A
C140       C1103   1.469       .  S
O145       Mg147   2.132   1_545  S
O145       Mg153   2.149   1_545  S
O145        C180   1.237       .  S
C146        O159   1.237       .  S
C146        O183   1.270       .  A
C146        H185   1.081   1_545  S
Mg147       O176   2.143       .  S
Mg147       O191   2.320       .  S
Mg147       O187   2.253       .  S
Mg147       O158   2.302       .  S
O148       Mg190   2.144       .  S
O148       Mg173   2.129       .  S
O148        C169   1.238       .  S
O149        C180   1.271       .  A
O149       Mg173   2.294       .  S
C150        O152   1.269       .  A
C150        O164   1.278       .  A
C150       C1043   1.490       .  S
O151        C179   1.270       .  A
O151       Mg153   2.295       .  S
O152       Mg184   2.244       .  S
Mg153       O159   2.126   1_565  S
Mg153       O167   2.242       .  S
Mg153       O155   2.306   1_565  S
C154        O192   1.274       .  A
C154        O160   1.273       .  A
C154       C1030   1.491       .  S
O155        C162   1.275       .  A
H156        C169   1.081       .  S
C157        O171   1.237   1_565  S
C157        O172   1.272       .  A
C157        H182   1.081       .  S
O158        C181   1.271       .  A
O159       Mg173   2.146       .  S
O160       Mg190   2.304       .  S
C161        O174   1.274       .  A
C161        O166   1.274       .  A
C161       C1053   1.482       .  S
C162        O189   1.271       .  A
C162       C1010   1.474       .  S
Mg163       O170   2.139   1_545  S
Mg163       O171   2.142       .  S
Mg163       O164   2.328   1_545  S
Mg163       O165   2.299       .  S
Mg163       O192   2.254       .  S
O165        C169   1.271       .  A
O166       Mg173   2.301       .  S
O167        C186   1.269       .  A
O168        C188   1.276       .  A
O168       Mg184   2.316       .  S
O170       Mg184   2.134       .  S
O170        C181   1.237       .  S
O171       Mg190   2.139       .  S
O172       Mg184   2.303       .  S
Mg173       O189   2.254       .  S
O174       Mg190   2.268       .  S
H175        C180   1.081       .  S
O176       Mg184   2.132       .  S
O176        C179   1.237       .  S
H177        C179   1.081       .  S
H178        C181   1.081   1_545  S
O183       Mg190   2.295       .  S
C186        O191   1.277       .  A
C186       C1063   1.488       .  S
O187        C188   1.272       .  A
C188       C1023   1.479       .  S
O193       Mg195   2.138   1_454  S
O193       Mg201   2.145       .  S
O193        C228   1.237       .  S
C194        O207   1.237       .  S
C194        O231   1.271       .  A
C194        H233   1.081       .  S
Mg195       O224   2.153   1_655  S
Mg195       O239   2.317   1_655  S
Mg195       O235   2.257       .  S
Mg195       O206   2.296       .  S
O196       Mg238   2.145   1_655  S
O196       Mg221   2.132   1_655  S
O196        C217   1.237       .  S
O197        C228   1.271       .  A
O197       Mg221   2.300       .  S
C198        O200   1.271       .  A
C198        O212   1.276       .  A
C198        C993   1.488       .  S
O199        C227   1.270       .  A
O199       Mg201   2.293   1_556  S
O200       Mg232   2.261       .  S
Mg201       O207   2.136       .  S
Mg201       O215   2.254   1_554  S
Mg201       O203   2.302       .  S
C202        O240   1.270       .  A
C202        O208   1.277       .  A
C202        C983   1.493       .  S
O203        C210   1.276       .  A
H204        C217   1.081       .  S
C205        O219   1.237       .  S
C205        O220   1.271       .  A
C205        H230   1.081       .  S
O206        C229   1.271       .  A
O207       Mg221   2.146       .  S
O208       Mg238   2.311   1_655  S
C209        O222   1.270       .  A
C209        O214   1.278       .  A
C209        C953   1.493       .  S
C210        O237   1.272       .  A
C210        C960   1.481       .  S
Mg211       O218   2.132   1_554  S
Mg211       O219   2.142   1_554  S
Mg211       O212   2.303   1_554  S
Mg211       O213   2.299       .  S
Mg211       O240   2.258       .  S
O213        C217   1.271       .  A
O214       Mg221   2.317       .  S
O215        C234   1.273       .  A
O216        C236   1.275       .  A
O216       Mg232   2.298       .  S
O218       Mg232   2.147       .  S
O218        C229   1.237       .  S
O219       Mg238   2.130   1_656  S
O220       Mg232   2.297       .  S
Mg221       O237   2.261       .  S
O222       Mg238   2.257       .  S
H223        C228   1.081   1_655  S
O224       Mg232   2.129   1_455  S
O224        C227   1.237       .  S
H225        C227   1.081       .  S
H226        C229   1.081       .  S
O231       Mg238   2.299       .  S
C234        O239   1.276       .  A
C234        C970   1.479       .  S
O235        C236   1.273       .  A
C236       C1000   1.474       .  S
O241       Mg243   2.141   1_445  S
O241       Mg249   2.145   1_455  S
O241        C276   1.238       .  S
C242        O255   1.238       .  S
C242        O279   1.272       .  A
C242        H281   1.081       .  S
Mg243       O272   2.145   1_565  S
Mg243       O287   2.314   1_565  S
Mg243       O283   2.266       .  S
Mg243       O254   2.298       .  S
O244       Mg286   2.134       .  S
O244       Mg269   2.138   1_565  S
O244        C265   1.237       .  S
O245        C276   1.272       .  A
O245       Mg269   2.302       .  S
C246        O248   1.274       .  A
C246        O260   1.272       .  A
C246        C913   1.492       .  S
O247        C275   1.271       .  A
O247       Mg249   2.300       .  S
O248       Mg280   2.265       .  S
Mg249       O255   2.140   1_655  S
Mg249       O263   2.271       .  S
Mg249       O251   2.307   1_655  S
C250        O288   1.271       .  A
C250        O256   1.274       .  A
C250        C930   1.468       .  S
O251        C258   1.275       .  A
H252        C265   1.081       .  S
C253        O267   1.237       .  S
C253        O268   1.270       .  A
C253        H278   1.081       .  S
O254        C277   1.271       .  A
O255       Mg269   2.149       .  S
O256       Mg286   2.308       .  S
C257        O270   1.268       .  A
C257        O262   1.278       .  A
C257        C890   1.485       .  S
C258        O285   1.272       .  A
C258        C900   1.473       .  S
Mg259       O266   2.132   1_455  S
Mg259       O267   2.142   1_455  S
Mg259       O260   2.298   1_455  S
Mg259       O261   2.301       .  S
Mg259       O288   2.265       .  S
O261        C265   1.271       .  A
O262       Mg269   2.334       .  S
O263        C282   1.273       .  A
O264        C284   1.274       .  A
O264       Mg280   2.300       .  S
O266       Mg280   2.150       .  S
O266        C277   1.238       .  S
O267       Mg286   2.124   1_655  S
O268       Mg280   2.295       .  S
Mg269       O285   2.259       .  S
O270       Mg286   2.235   1_545  S
H271        C276   1.081       .  S
O272       Mg280   2.134   1_545  S
O272        C275   1.237       .  S
H273        C275   1.081       .  S
H274        C277   1.081       .  S
O279       Mg286   2.303   1_545  S
C282        O287   1.276       .  A
C282        C920   1.471       .  S
O283        C284   1.273       .  A
C284        C943   1.485       .  S
O289       Mg291   2.137   1_544  S
O289       Mg297   2.149   1_545  S
O289        C324   1.238       .  S
C290        O303   1.237       .  S
C290        O327   1.271       .  A
C290        H329   1.081       .  S
Mg291       O320   2.143   1_556  S
Mg291       O335   2.307   1_556  S
Mg291       O331   2.263       .  S
Mg291       O302   2.304       .  S
O292       Mg334   2.141   1_556  S
O292       Mg317   2.136   1_556  S
O292        C313   1.238       .  S
O293        C324   1.271       .  A
O293       Mg317   2.298       .  S
C294        O296   1.271       .  A
C294        O308   1.275       .  A
C294        C863   1.473       .  S
O295        C323   1.271       .  A
O295       Mg297   2.298       .  S
O296       Mg328   2.262       .  S
Mg297       O303   2.132   1_565  S
Mg297       O311   2.257       .  S
Mg297       O299   2.306   1_565  S
C298        O336   1.271       .  A
C298        O304   1.274       .  A
C298        C873   1.470       .  S
O299        C306   1.274       .  A
H300        C313   1.081       .  S
C301        O315   1.238       .  S
C301        O316   1.272       .  A
C301        H326   1.081       .  S
O302        C325   1.272       .  A
O303       Mg317   2.146       .  S
O304       Mg334   2.305   1_556  S
C305        O318   1.271       .  A
C305        O310   1.275       .  A
C305        C830   1.469       .  S
C306        O333   1.271       .  A
C306        C843   1.466       .  S
Mg307       O314   2.142   1_545  S
Mg307       O315   2.139   1_545  S
Mg307       O308   2.310   1_545  S
Mg307       O309   2.304       .  S
Mg307       O336   2.265       .  S
O309        C313   1.272       .  A
O310       Mg317   2.314       .  S
O311        C330   1.271       .  A
O312        C332   1.277       .  A
O312       Mg328   2.318       .  S
O314       Mg328   2.141       .  S
O314        C325   1.237       .  S
O315       Mg334   2.143   1_566  S
O316       Mg328   2.308       .  S
Mg317       O333   2.260       .  S
O318       Mg334   2.265       .  S
H319        C324   1.081       .  S
O320       Mg328   2.135   1_554  S
O320        C323   1.237       .  S
H321        C323   1.081       .  S
H322        C325   1.081       .  S
O327       Mg334   2.297       .  S
C330        O335   1.276       .  A
C330        C850   1.482       .  S
O331        C332   1.272       .  A
C332        C883   1.480       .  S
O337       Mg339   2.132   1_546  S
O337       Mg345   2.144   1_545  S
O337        C372   1.237       .  S
C338        O351   1.238       .  S
C338        O375   1.273       .  A
C338        H377   1.081       .  S
Mg339       O368   2.151   1_554  S
Mg339       O383   2.297   1_554  S
Mg339       O379   2.261       .  S
Mg339       O350   2.290       .  S
O340       Mg382   2.140   1_554  S
O340       Mg365   2.128   1_654  S
O340        C361   1.237       .  S
O341        C372   1.270       .  A
O341       Mg365   2.297       .  S
C342        O344   1.273       .  A
C342        O356   1.272       .  A
C342        C820   1.485       .  S
O343        C371   1.271       .  A
O343       Mg345   2.299       .  S
O344       Mg376   2.269       .  S
Mg345       O351   2.143   1_465  S
Mg345       O359   2.263       .  S
Mg345       O347   2.328   1_565  S
C346        O384   1.267       .  A
C346        O352   1.278       .  A
C346        C770   1.490       .  S
O347        C354   1.277       .  A
H348        C361   1.081       .  S
C349        O363   1.237       .  S
C349        O364   1.271       .  A
C349        H374   1.081   1_554  S
O350        C373   1.270       .  A
O351       Mg365   2.138   1_655  S
O352       Mg382   2.331   1_554  S
C353        O366   1.273       .  A
C353        O358   1.272       .  A
C353        C813   1.487       .  S
C354        O381   1.269       .  A
C354        C790   1.483       .  S
Mg355       O362   2.123   1_655  S
Mg355       O363   2.139       .  S
Mg355       O356   2.290       .  S
Mg355       O357   2.298   1_565  S
Mg355       O384   2.236   1_565  S
O357        C361   1.270       .  A
O358       Mg365   2.295   1_655  S
O359        C378   1.274       .  A
O360        C380   1.275       .  A
O360       Mg376   2.305   1_455  S
O362       Mg376   2.150   1_455  S
O362        C373   1.237       .  S
O363       Mg382   2.136   1_564  S
O364       Mg376   2.299       .  S
Mg365       O381   2.242       .  S
O366       Mg382   2.264       .  S
H367        C372   1.081       .  S
O368       Mg376   2.132   1_456  S
O368        C371   1.238       .  S
H369        C371   1.081       .  S
H370        C373   1.081       .  S
O375       Mg382   2.308       .  S
C378        O383   1.273       .  A
C378        C800   1.488       .  S
O379        C380   1.272       .  A
C380        C780   1.475       .  S
O385       Mg387   2.142       .  S
O385       Mg393   2.137       .  S
O385        C420   1.238       .  S
C386        O399   1.237       .  S
C386        O423   1.272       .  A
C386        H425   1.081       .  S
Mg387       O416   2.152       .  S
Mg387       O431   2.320       .  S
Mg387       O427   2.262       .  S
Mg387       O398   2.293       .  S
O388       Mg430   2.151       .  S
O388       Mg413   2.139       .  S
O388        C409   1.238       .  S
O389        C420   1.272       .  A
O389       Mg413   2.308       .  S
C390        O392   1.273       .  A
C390        O404   1.275       .  A
C390        C823   1.473       .  S
O391        C419   1.271       .  A
O391       Mg393   2.297       .  S
O392       Mg424   2.265       .  S
Mg393       O399   2.137       .  S
Mg393       O407   2.249       .  S
Mg393       O395   2.310       .  S
C394        O432   1.271       .  A
C394        O400   1.277       .  A
C394        C980   1.486       .  S
O395        C402   1.275       .  A
H396        C409   1.081       .  S
C397        O411   1.237       .  S
C397        O412   1.270       .  A
C397        H422   1.081       .  S
O398        C421   1.270       .  A
O399       Mg413   2.138       .  S
O400       Mg430   2.311       .  S
C401        O414   1.272       .  A
C401        O406   1.277       .  A
C401       C1090   1.486       .  S
C402        O429   1.274       .  A
C402       C1223   1.475       .  S
Mg403       O410   2.130       .  S
Mg403       O411   2.147       .  S
Mg403       O404   2.300       .  S
Mg403       O405   2.299       .  S
Mg403       O432   2.259       .  S
O405        C409   1.272       .  A
O406       Mg413   2.314       .  S
O407        C426   1.272       .  A
O408        C428   1.276       .  A
O408       Mg424   2.306       .  S
O410       Mg424   2.155       .  S
O410        C421   1.237       .  S
O411       Mg430   2.132       .  S
O412       Mg424   2.292       .  S
Mg413       O429   2.282       .  S
O414       Mg430   2.261       .  S
H415        C420   1.081       .  S
O416       Mg424   2.132       .  S
O416        C419   1.237       .  S
H417        C419   1.081       .  S
H418        C421   1.081       .  S
O423       Mg430   2.303       .  S
C426        O431   1.275       .  A
C426       C1020   1.490       .  S
O427        C428   1.273       .  A
C428        C940   1.472       .  S
O433       Mg435   2.131       .  S
O433       Mg441   2.143       .  S
O433        C468   1.238       .  S
C434        O447   1.237       .  S
C434        O471   1.271       .  A
C434        H473   1.081       .  S
Mg435       O464   2.150       .  S
Mg435       O479   2.318       .  S
Mg435       O475   2.262       .  S
Mg435       O446   2.298       .  S
O436       Mg478   2.143       .  S
O436       Mg461   2.130       .  S
O436        C457   1.237       .  S
O437        C468   1.272       .  A
O437       Mg461   2.300       .  S
C438        O440   1.273       .  A
C438        O452   1.272       .  A
C438        C810   1.488       .  S
O439        C467   1.271       .  A
O439       Mg441   2.297       .  S
O440       Mg472   2.263       .  S
Mg441       O447   2.134       .  S
Mg441       O455   2.265       .  S
Mg441       O443   2.297       .  S
C442        O480   1.271       .  A
C442        O448   1.274       .  A
C442        C870   1.466       .  S
O443        C450   1.274       .  A
H444        C457   1.081       .  S
C445        O459   1.237       .  S
C445        O460   1.270       .  A
C445        H470   1.081       .  S
O446        C469   1.271       .  A
O447       Mg461   2.149       .  S
O448       Mg478   2.307       .  S
C449        O462   1.270       .  A
C449        O454   1.275       .  A
C449       C1033   1.469       .  S
C450        O477   1.272       .  A
C450       C1203   1.478       .  S
Mg451       O458   2.131       .  S
Mg451       O459   2.141       .  S
Mg451       O452   2.292       .  S
Mg451       O453   2.296       .  S
Mg451       O480   2.259       .  S
O453        C457   1.270       .  A
O454       Mg461   2.312       .  S
O455        C474   1.272       .  A
O456        C476   1.272       .  A
O456       Mg472   2.291       .  S
O458       Mg472   2.148       .  S
O458        C469   1.237       .  S
O459       Mg478   2.121       .  S
O460       Mg472   2.294       .  S
Mg461       O477   2.253       .  S
O462       Mg478   2.240       .  S
H463        C468   1.081       .  S
O464       Mg472   2.134       .  S
O464        C467   1.237       .  S
H465        C467   1.081       .  S
H466        C469   1.081       .  S
O471       Mg478   2.297       .  S
C474        O479   1.277       .  A
C474       C1160   1.487       .  S
O475        C476   1.273       .  A
C476       C1003   1.487       .  S
O481       Mg483   2.129       .  S
O481       Mg489   2.140       .  S
O481        C516   1.237       .  S
C482        O495   1.237       .  S
C482        O519   1.271       .  A
C482        H521   1.081       .  S
Mg483       O512   2.146       .  S
Mg483       O527   2.314       .  S
Mg483       O523   2.249       .  S
Mg483       O494   2.300       .  S
O484       Mg526   2.152       .  S
O484       Mg509   2.143       .  S
O484        C505   1.238       .  S
O485        C516   1.271       .  A
O485       Mg509   2.299       .  S
C486        O488   1.272       .  A
C486        O500   1.276       .  A
C486       C1073   1.472       .  S
O487        C515   1.272       .  A
O487       Mg489   2.301       .  S
O488       Mg520   2.272       .  S
Mg489       O495   2.133       .  S
Mg489       O503   2.255       .  S
Mg489       O491   2.308       .  S
C490        O528   1.272       .  A
C490        O496   1.275       .  A
C490        C880   1.471       .  S
O491        C498   1.274       .  A
H492        C505   1.080       .  S
C493        O507   1.238       .  S
C493        O508   1.272       .  A
C493        H518   1.081       .  S
O494        C517   1.271       .  A
O495       Mg509   2.142       .  S
O496       Mg526   2.313       .  S
C497        O510   1.273       .  A
C497        O502   1.273       .  A
C497        C803   1.487       .  S
C498        O525   1.272       .  A
C498        C933   1.472       .  S
Mg499       O506   2.135       .  S
Mg499       O507   2.147       .  S
Mg499       O500   2.318       .  S
Mg499       O501   2.299       .  S
Mg499       O528   2.264       .  S
O501        C505   1.271       .  A
O502       Mg509   2.297       .  S
O503        C522   1.270       .  A
O504        C524   1.277       .  A
O504       Mg520   2.313       .  S
O506       Mg520   2.139       .  S
O506        C517   1.237       .  S
O507       Mg526   2.136       .  S
O508       Mg520   2.303       .  S
Mg509       O525   2.273       .  S
O510       Mg526   2.261       .  S
H511        C516   1.081       .  S
O512       Mg520   2.143       .  S
O512        C515   1.238       .  S
H513        C515   1.081       .  S
H514        C517   1.081       .  S
O519       Mg526   2.299       .  S
C522        O527   1.276       .  A
C522       C1153   1.482       .  S
O523        C524   1.269       .  A
C524       C1233   1.490       .  S
O529       Mg531   2.140       .  S
O529       Mg537   2.142       .  S
O529        C564   1.237       .  S
C530        O543   1.237       .  S
C530        O567   1.270       .  A
C530        H569   1.081       .  S
Mg531       O560   2.144       .  S
Mg531       O575   2.316       .  S
Mg531       O571   2.256       .  S
Mg531       O542   2.298       .  S
O532       Mg574   2.150       .  S
O532       Mg557   2.130       .  S
O532        C553   1.237       .  S
O533        C564   1.271       .  A
O533       Mg557   2.299       .  S
C534        O536   1.272       .  A
C534        O548   1.273       .  A
C534       C1050   1.475       .  S
O535        C563   1.272       .  A
O535       Mg537   2.303       .  S
O536       Mg568   2.269       .  S
Mg537       O543   2.135       .  S
Mg537       O551   2.253       .  S
Mg537       O539   2.331       .  S
C538        O576   1.268       .  A
C538        O544   1.276       .  A
C538       C1213   1.481       .  S
O539        C546   1.278       .  A
H540        C553   1.081       .  S
C541        O555   1.237       .  S
C541        O556   1.271       .  A
C541        H566   1.081       .  S
O542        C565   1.271       .  A
O543       Mg557   2.143       .  S
O544       Mg574   2.318       .  S
C545        O558   1.272       .  A
C545        O550   1.278       .  A
C545       C1123   1.478       .  S
C546        O573   1.271       .  A
C546        C973   1.494       .  S
Mg547       O554   2.126       .  S
Mg547       O555   2.141       .  S
Mg547       O548   2.300       .  S
Mg547       O549   2.293       .  S
Mg547       O576   2.234       .  S
O549        C553   1.271       .  A
O550       Mg557   2.323       .  S
O551        C570   1.273       .  A
O552        C572   1.274       .  A
O552       Mg568   2.307       .  S
O554       Mg568   2.139       .  S
O554        C565   1.237       .  S
O555       Mg574   2.134       .  S
O556       Mg568   2.300       .  S
Mg557       O573   2.253       .  S
O558       Mg574   2.255       .  S
H559        C564   1.081       .  S
O560       Mg568   2.141       .  S
O560        C563   1.238       .  S
H561        C563   1.081       .  S
H562        C565   1.081       .  S
O567       Mg574   2.295       .  S
C570        O575   1.275       .  A
C570        C793   1.485       .  S
O571        C572   1.273       .  A
C572        C893   1.480       .  S
O577       Mg579   2.137       .  S
O577       Mg585   2.148       .  S
O577        C612   1.237       .  S
C578        O591   1.237       .  S
C578        O615   1.271       .  A
C578        H617   1.081       .  S
Mg579       O608   2.152       .  S
Mg579       O623   2.317       .  S
Mg579       O619   2.267       .  S
Mg579       O590   2.294       .  S
O580       Mg622   2.142       .  S
O580       Mg605   2.130       .  S
O580        C601   1.237       .  S
O581        C612   1.271       .  A
O581       Mg605   2.298       .  S
C582        O584   1.273       .  A
C582        O596   1.276       .  A
C582        C950   1.480       .  S
O583        C611   1.271       .  A
O583       Mg585   2.299       .  S
O584       Mg616   2.267       .  S
Mg585       O591   2.139       .  S
Mg585       O599   2.262       .  S
Mg585       O587   2.327       .  S
C586        O624   1.274       .  A
C586        O592   1.274       .  A
C586        C783   1.488       .  S
O587        C594   1.277       .  A
H588        C601   1.081       .  S
C589        O603   1.237       .  S
C589        O604   1.270       .  A
C589        H614   1.081       .  S
O590        C613   1.271       .  A
O591       Mg605   2.145       .  S
O592       Mg622   2.299       .  S
C593        O606   1.269       .  A
C593        O598   1.276       .  A
C593        C853   1.493       .  S
C594        O621   1.271       .  A
C594       C1060   1.479       .  S
Mg595       O602   2.134       .  S
Mg595       O603   2.149       .  S
Mg595       O596   2.307       .  S
Mg595       O597   2.298       .  S
Mg595       O624   2.269       .  S
O597        C601   1.271       .  A
O598       Mg605   2.308       .  S
O599        C618   1.272       .  A
O600        C620   1.276       .  A
O600       Mg616   2.308       .  S
O602       Mg616   2.153       .  S
O602        C613   1.237       .  S
O603       Mg622   2.126       .  S
O604       Mg616   2.293       .  S
Mg605       O621   2.245       .  S
O606       Mg622   2.255       .  S
H607        C612   1.081       .  S
O608       Mg616   2.139       .  S
O608        C611   1.237       .  S
H609        C611   1.081       .  S
H610        C613   1.081       .  S
O615       Mg622   2.301       .  S
C618        O623   1.278       .  A
C618       C1190   1.489       .  S
O619        C620   1.273       .  A
C620       C1173   1.475       .  S
O625       Mg627   2.130       .  S
O625       Mg633   2.148       .  S
O625        C660   1.237       .  S
C626        O639   1.237       .  S
C626        O663   1.271       .  A
C626        H665   1.081       .  S
Mg627       O656   2.142       .  S
Mg627       O671   2.309       .  S
Mg627       O667   2.247       .  S
Mg627       O638   2.299       .  S
O628       Mg670   2.144       .  S
O628       Mg653   2.138       .  S
O628        C649   1.237       .  S
O629        C660   1.271       .  A
O629       Mg653   2.296       .  S
C630        O632   1.274       .  A
C630        O644   1.274       .  A
C630       C1183   1.494       .  S
O631        C659   1.272       .  A
O631       Mg633   2.300       .  S
O632       Mg664   2.258       .  S
Mg633       O639   2.133       .  S
Mg633       O647   2.260       .  S
Mg633       O635   2.322       .  S
C634        O672   1.272       .  A
C634        O640   1.276       .  A
C634        C923   1.477       .  S
O635        C642   1.277       .  A
H636        C649   1.081       .  S
C637        O651   1.238       .  S
C637        O652   1.272       .  A
C637        H662   1.081       .  S
O638        C661   1.271       .  A
O639       Mg653   2.140       .  S
O640       Mg670   2.316       .  S
C641        O654   1.273       .  A
C641        O646   1.275       .  A
C641        C773   1.475       .  S
C642        O669   1.272       .  A
C642        C833   1.482       .  S
Mg643       O650   2.134       .  S
Mg643       O651   2.149       .  S
Mg643       O644   2.315       .  S
Mg643       O645   2.297       .  S
Mg643       O672   2.259       .  S
O645        C649   1.271       .  A
O646       Mg653   2.312       .  S
O647        C666   1.272       .  A
O648        C668   1.278       .  A
O648       Mg664   2.329       .  S
O650       Mg664   2.140       .  S
O650        C661   1.237       .  S
O651       Mg670   2.134       .  S
O652       Mg664   2.300       .  S
Mg653       O669   2.256       .  S
O654       Mg670   2.254       .  S
H655        C660   1.081       .  S
O656       Mg664   2.140       .  S
O656        C659   1.238       .  S
H657        C659   1.081       .  S
H658        C661   1.081       .  S
O663       Mg670   2.300       .  S
C666        O671   1.275       .  A
C666       C1100   1.475       .  S
O667        C668   1.270       .  A
C668       C1243   1.492       .  S
O673       Mg675   2.132       .  S
O673       Mg681   2.140       .  S
O673        C708   1.238       .  S
C674        O687   1.237       .  S
C674        O711   1.272       .  A
C674        H713   1.081       .  S
Mg675       O704   2.142       .  S
Mg675       O719   2.308       .  S
Mg675       O715   2.254       .  S
Mg675       O686   2.297       .  S
O676       Mg718   2.144       .  S
O676       Mg701   2.142       .  S
O676        C697   1.237       .  S
O677        C708   1.272       .  A
O677       Mg701   2.302       .  S
C678        O680   1.269       .  A
C678        O692   1.277       .  A
C678       C1133   1.493       .  S
O679        C707   1.271       .  A
O679       Mg681   2.299       .  S
O680       Mg712   2.255       .  S
Mg681       O687   2.139       .  S
Mg681       O695   2.266       .  S
Mg681       O683   2.305       .  S
C682        O720   1.271       .  A
C682        O688   1.277       .  A
C682        C903   1.487       .  S
O683        C690   1.274       .  A
H684        C697   1.081       .  S
C685        O699   1.237       .  S
C685        O700   1.271       .  A
C685        H710   1.081       .  S
O686        C709   1.271       .  A
O687       Mg701   2.139       .  S
O688       Mg718   2.311       .  S
C689        O702   1.271       .  A
C689        O694   1.274       .  A
C689       C1013   1.467       .  S
C690        O717   1.271       .  A
C690        C840   1.471       .  S
Mg691       O698   2.131       .  S
Mg691       O699   2.147       .  S
Mg691       O692   2.313       .  S
Mg691       O693   2.302       .  S
Mg691       O720   2.257       .  S
O693        C697   1.271       .  A
O694       Mg701   2.306       .  S
O695        C714   1.271       .  A
O696        C716   1.276       .  A
O696       Mg712   2.307       .  S
O698       Mg712   2.145       .  S
O698        C709   1.237       .  S
O699       Mg718   2.137       .  S
O700       Mg712   2.299       .  S
Mg701       O717   2.263       .  S
O702       Mg718   2.265       .  S
H703        C708   1.081       .  S
O704       Mg712   2.130       .  S
O704        C707   1.237       .  S
H705        C707   1.081       .  S
H706        C709   1.081       .  S
O711       Mg718   2.305       .  S
C714        O719   1.274       .  A
C714       C1083   1.468       .  S
O715        C716   1.269       .  A
C716        C963   1.492       .  S
O721       Mg723   2.135       .  S
O721       Mg729   2.145       .  S
O721        C756   1.237       .  S
C722        O735   1.237       .  S
C722        O759   1.271       .  A
C722        H761   1.081       .  S
Mg723       O752   2.149       .  S
Mg723       O767   2.303       .  S
Mg723       O763   2.256       .  S
Mg723       O734   2.291       .  S
O724       Mg766   2.146       .  S
O724       Mg749   2.133       .  S
O724        C745   1.237       .  S
O725        C756   1.271       .  A
O725       Mg749   2.298       .  S
C726        O728   1.272       .  A
C726        O740   1.275       .  A
C726        C860   1.467       .  S
O727        C755   1.271       .  A
O727       Mg729   2.301       .  S
O728       Mg760   2.264       .  S
Mg729       O735   2.132       .  S
Mg729       O743   2.262       .  S
Mg729       O731   2.322       .  S
C730        O768   1.272       .  A
C730        O736   1.275       .  A
C730       C1110   1.470       .  S
O731        C738   1.278       .  A
H732        C745   1.081       .  S
C733        O747   1.237       .  S
C733        O748   1.270       .  A
C733        H758   1.081       .  S
O734        C757   1.270       .  A
O735       Mg749   2.143       .  S
O736       Mg766   2.302       .  S
C737        O750   1.270       .  A
C737        O742   1.276       .  A
C737        C990   1.489       .  S
C738        O765   1.270       .  A
C738       C1143   1.496       .  S
Mg739       O746   2.127       .  S
Mg739       O747   2.152       .  S
Mg739       O740   2.308       .  S
Mg739       O741   2.295       .  S
Mg739       O768   2.258       .  S
O741        C745   1.271       .  A
O742       Mg749   2.305       .  S
O743        C762   1.273       .  A
O744        C764   1.275       .  A
O744       Mg760   2.309       .  S
O746       Mg760   2.151       .  S
O746        C757   1.237       .  S
O747       Mg766   2.131       .  S
O748       Mg760   2.295       .  S
Mg749       O765   2.257       .  S
O750       Mg766   2.258       .  S
H751        C756   1.081       .  S
O752       Mg760   2.138       .  S
O752        C755   1.237       .  S
H753        C755   1.081       .  S
H754        C757   1.081       .  S
O759       Mg766   2.300       .  S
C762        O767   1.274       .  A
C762        C910   1.483       .  S
O763        C764   1.272       .  A
C764       C1040   1.469       .  S
C769        H776   1.083       .  S
C769        C770   1.409       .  A
C769        C774   1.403       .  A
C770        C771   1.421       .  A
C771        C772   1.394       .  A
C771       Br778   1.925       .  S
C772        H777   1.084       .  S
C772        C773   1.398       .  A
C773        C774   1.409       .  A
C774       Br775   1.920       .  S
C779        H786   1.083       .  S
C779        C780   1.402       .  A
C779        C784   1.399       .  A
C780        C781   1.408       .  A
C781        C782   1.399       .  A
C781       Br788   1.920       .  S
C782        H787   1.083       .  S
C782        C783   1.408       .  A
C783        C784   1.418       .  A
C784       Br785   1.924       .  S
C789        H796   1.083       .  S
C789        C790   1.406       .  A
C789        C794   1.404       .  A
C790        C791   1.414       .  A
C791        C792   1.394       .  A
C791       Br798   1.924       .  S
C792        H797   1.083       .  S
C792        C793   1.403       .  A
C793        C794   1.415       .  A
C794       Br795   1.921       .  S
C799        H806   1.083       .  S
C799        C800   1.406       .  A
C799        C804   1.397       .  A
C800        C801   1.416       .  A
C801        C802   1.398       .  A
C801       Br808   1.924       .  S
C802        H807   1.083       .  S
C802        C803   1.406       .  A
C803        C804   1.415       .  A
C804       Br805   1.923       .  S
C809        H816   1.083       .  S
C809        C810   1.406       .  A
C809        C814   1.398       .  A
C810        C811   1.417       .  A
C811        C812   1.398       .  A
C811       Br818   1.924       .  S
C812        H817   1.083       .  S
C812        C813   1.406       .  A
C813        C814   1.416       .  A
C814       Br815   1.924       .  S
C819        H826   1.083       .  S
C819        C820   1.407       .  A
C819        C824   1.399       .  A
C820        C821   1.417       .  A
C821        C822   1.399       .  A
C821       Br828   1.924       .  S
C822        H827   1.084       .  S
C822        C823   1.401       .  A
C823        C824   1.408       .  A
C824       Br825   1.919       .  S
C829        H836   1.083       .  S
C829        C830   1.399       .  A
C829        C834   1.398       .  A
C830        C831   1.406       .  A
C831        C832   1.403       .  A
C831       Br838   1.917       .  S
C832        H837   1.083       .  S
C832        C833   1.407       .  A
C833        C834   1.415       .  A
C834       Br835   1.922       .  S
C839        H846   1.083       .  S
C839        C840   1.403       .  A
C839        C844   1.398       .  A
C840        C841   1.409       .  A
C841        C842   1.400       .  A
C841       Br848   1.919       .  S
C842        H847   1.083       .  S
C842        C843   1.401       .  A
C843        C844   1.406       .  A
C844       Br845   1.919       .  S
C849        H856   1.083       .  S
C849        C850   1.403       .  A
C849        C854   1.399       .  A
C850        C851   1.412       .  A
C851        C852   1.398       .  A
C851       Br858   1.922       .  S
C852        H857   1.083       .  S
C852        C853   1.408       .  A
C853        C854   1.420       .  A
C854       Br855   1.924       .  S
C859        H866   1.083       .  S
C859        C860   1.401       .  A
C859        C864   1.399       .  A
C860        C861   1.405       .  A
C861        C862   1.399       .  A
C861       Br868   1.917       .  S
C862        H867   1.083       .  S
C862        C863   1.404       .  A
C863        C864   1.410       .  A
C864       Br865   1.920       .  S
C869        H876   1.083       .  S
C869        C870   1.401       .  A
C869        C874   1.399       .  A
C870        C871   1.406       .  A
C871        C872   1.400       .  A
C871       Br878   1.918       .  S
C872        H877   1.083       .  S
C872        C873   1.403       .  A
C873        C874   1.409       .  A
C874       Br875   1.920       .  S
C879        H886   1.083       .  S
C879        C880   1.401       .  A
C879        C884   1.401       .  A
C880        C881   1.407       .  A
C881        C882   1.400       .  A
C881       Br888   1.919       .  S
C882        H887   1.083       .  S
C882        C883   1.405       .  A
C883        C884   1.414       .  A
C884       Br885   1.921       .  S
C889        H896   1.083       .  S
C889        C890   1.406       .  A
C889        C894   1.403       .  A
C890        C891   1.417       .  A
C891        C892   1.394       .  A
C891       Br898   1.925       .  S
C892        H897   1.084       .  S
C892        C893   1.400       .  A
C893        C894   1.413       .  A
C894       Br895   1.921       .  S
C899        H906   1.083       .  S
C899        C900   1.400       .  A
C899        C904   1.400       .  A
C900        C901   1.407       .  A
C901        C902   1.398       .  A
C901       Br908   1.920       .  S
C902        H907   1.083       .  S
C902        C903   1.407       .  A
C903        C904   1.418       .  A
C904       Br905   1.922       .  S
C909        H916   1.083       .  S
C909        C910   1.404       .  A
C909        C914   1.399       .  A
C910        C911   1.412       .  A
C911        C912   1.398       .  A
C911       Br918   1.922       .  S
C912        H917   1.083       .  S
C912        C913   1.409       .  A
C913        C914   1.419       .  A
C914       Br915   1.924       .  S
C919        H926   1.083       .  S
C919        C920   1.402       .  A
C919        C924   1.402       .  A
C920        C921   1.407       .  A
C921        C922   1.398       .  A
C921       Br928   1.919       .  S
C922        H927   1.083       .  S
C922        C923   1.404       .  A
C923        C924   1.411       .  A
C924       Br925   1.919       .  S
C929        H936   1.083       .  S
C929        C930   1.402       .  A
C929        C934   1.400       .  A
C930        C931   1.407       .  A
C931        C932   1.400       .  A
C931       Br938   1.918       .  S
C932        H937   1.083       .  S
C932        C933   1.403       .  A
C933        C934   1.409       .  A
C934       Br935   1.917       .  S
C939        H946   1.083       .  S
C939        C940   1.401       .  A
C939        C944   1.399       .  A
C940        C941   1.406       .  A
C941        C942   1.399       .  A
C941       Br948   1.919       .  S
C942        H947   1.083       .  S
C942        C943   1.408       .  A
C943        C944   1.416       .  A
C944       Br945   1.923       .  S
C949        H956   1.083       .  S
C949        C950   1.402       .  A
C949        C954   1.400       .  A
C950        C951   1.410       .  A
C951        C952   1.399       .  A
C951       Br958   1.921       .  S
C952        H957   1.083       .  S
C952        C953   1.409       .  A
C953        C954   1.420       .  A
C954       Br955   1.924       .  S
C959        H966   1.083       .  S
C959        C960   1.403       .  A
C959        C964   1.399       .  A
C960        C961   1.411       .  A
C961        C962   1.398       .  A
C961       Br968   1.922       .  S
C962        H967   1.083       .  S
C962        C963   1.409       .  A
C963        C964   1.420       .  A
C964       Br965   1.924       .  S
C969        H976   1.084       .  S
C969        C970   1.398       .  A
C969        C974   1.393       .  A
C970        C971   1.409       .  A
C971        C972   1.406       .  A
C971       Br978   1.919       .  S
C972        H977   1.083       .  S
C972        C973   1.412       .  A
C973        C974   1.418       .  A
C974       Br975   1.917       .  S
C979        H986   1.083       .  S
C979        C980   1.404       .  A
C979        C984   1.400       .  A
C980        C981   1.413       .  A
C981        C982   1.399       .  A
C981       Br988   1.923       .  S
C982        H987   1.083       .  S
C982        C983   1.408       .  A
C983        C984   1.420       .  A
C984       Br985   1.924       .  S
C989        H996   1.083       .  S
C989        C990   1.407       .  A
C989        C994   1.398       .  A
C990        C991   1.417       .  A
C991        C992   1.398       .  A
C991       Br998   1.924       .  S
C992        H997   1.083       .  S
C992        C993   1.406       .  A
C993        C994   1.415       .  A
C994       Br995   1.923       .  S
C999       H1006   1.083       .  S
C999       C1000   1.401       .  A
C999       C1004   1.398       .  A
C1000      C1001   1.408       .  A
C1001      C1002   1.397       .  A
C1001     Br1008   1.920       .  S
C1002      H1007   1.083       .  S
C1002      C1003   1.408       .  A
C1003      C1004   1.419       .  A
C1004     Br1005   1.924       .  S
C1009      H1016   1.083       .  S
C1009      C1010   1.405       .  A
C1009      C1014   1.401       .  A
C1010      C1011   1.411       .  A
C1011      C1012   1.397       .  A
C1011     Br1018   1.921       .  S
C1012      H1017   1.083       .  S
C1012      C1013   1.400       .  A
C1013      C1014   1.406       .  A
C1014     Br1015   1.918       .  S
C1019      H1026   1.083       .  S
C1019      C1020   1.408       .  A
C1019      C1024   1.394       .  A
C1020      C1021   1.417       .  A
C1021      C1022   1.404       .  A
C1021     Br1028   1.922       .  S
C1022      H1027   1.083       .  S
C1022      C1023   1.405       .  A
C1023      C1024   1.408       .  A
C1024     Br1025   1.922       .  S
C1029      H1036   1.083       .  S
C1029      C1030   1.408       .  A
C1029      C1034   1.392       .  A
C1030      C1031   1.422       .  A
C1031      C1032   1.403       .  A
C1031     Br1038   1.923       .  S
C1032      H1037   1.083       .  S
C1032      C1033   1.400       .  A
C1033      C1034   1.405       .  A
C1034     Br1035   1.922       .  S
C1039      H1046   1.084       .  S
C1039      C1040   1.397       .  A
C1039      C1044   1.395       .  A
C1040      C1041   1.405       .  A
C1041      C1042   1.403       .  A
C1041     Br1048   1.917       .  S
C1042      H1047   1.083       .  S
C1042      C1043   1.411       .  A
C1043      C1044   1.420       .  A
C1044     Br1045   1.925       .  S
C1049      H1056   1.083       .  S
C1049      C1050   1.402       .  A
C1049      C1054   1.400       .  A
C1050      C1051   1.410       .  A
C1051      C1052   1.398       .  A
C1051     Br1058   1.921       .  S
C1052      H1057   1.083       .  S
C1052      C1053   1.405       .  A
C1053      C1054   1.416       .  A
C1054     Br1055   1.922       .  S
C1059      H1066   1.084       .  S
C1059      C1060   1.402       .  A
C1059      C1064   1.395       .  A
C1060      C1061   1.409       .  A
C1061      C1062   1.403       .  A
C1061     Br1068   1.916       .  S
C1062      H1067   1.083       .  S
C1062      C1063   1.409       .  A
C1063      C1064   1.417       .  A
C1064     Br1065   1.925       .  S
C1069      H1076   1.083       .  S
C1069      C1070   1.402       .  A
C1069      C1074   1.401       .  A
C1070      C1071   1.408       .  A
C1071      C1072   1.401       .  A
C1071     Br1078   1.918       .  S
C1072      H1077   1.083       .  S
C1072      C1073   1.403       .  A
C1073      C1074   1.408       .  A
C1074     Br1075   1.919       .  S
C1079      H1086   1.083       .  S
C1079      C1080   1.403       .  A
C1079      C1084   1.400       .  A
C1080      C1081   1.408       .  A
C1081      C1082   1.400       .  A
C1081     Br1088   1.919       .  S
C1082      H1087   1.083       .  S
C1082      C1083   1.402       .  A
C1083      C1084   1.406       .  A
C1084     Br1085   1.918       .  S
C1089      H1096   1.083       .  S
C1089      C1090   1.408       .  A
C1089      C1094   1.401       .  A
C1090      C1091   1.413       .  A
C1091      C1092   1.397       .  A
C1091     Br1098   1.914       .  S
C1092      H1097   1.084       .  S
C1092      C1093   1.399       .  A
C1093      C1094   1.408       .  A
C1094     Br1095   1.918       .  S
C1099      H1106   1.083       .  S
C1099      C1100   1.404       .  A
C1099      C1104   1.398       .  A
C1100      C1101   1.411       .  A
C1101      C1102   1.401       .  A
C1101     Br1108   1.917       .  S
C1102      H1107   1.083       .  S
C1102      C1103   1.402       .  A
C1103      C1104   1.407       .  A
C1104     Br1105   1.919       .  S
C1109      H1116   1.083       .  S
C1109      C1110   1.400       .  A
C1109      C1114   1.399       .  A
C1110      C1111   1.407       .  A
C1111      C1112   1.398       .  A
C1111     Br1118   1.920       .  S
C1112      H1117   1.083       .  S
C1112      C1113   1.406       .  A
C1113      C1114   1.416       .  A
C1114     Br1115   1.922       .  S
C1119      H1126   1.083       .  S
C1119      C1120   1.401       .  A
C1119      C1124   1.400       .  A
C1120      C1121   1.406       .  A
C1121      C1122   1.398       .  A
C1121     Br1128   1.919       .  S
C1122      H1127   1.083       .  S
C1122      C1123   1.405       .  A
C1123      C1124   1.411       .  A
C1124     Br1125   1.915       .  S
C1129      H1136   1.083       .  S
C1129      C1130   1.402       .  A
C1129      C1134   1.400       .  A
C1130      C1131   1.411       .  A
C1131      C1132   1.399       .  A
C1131     Br1138   1.922       .  S
C1132      H1137   1.082       .  S
C1132      C1133   1.409       .  A
C1133      C1134   1.421       .  A
C1134     Br1135   1.924       .  S
C1139      H1146   1.083       .  S
C1139      C1140   1.402       .  A
C1139      C1144   1.401       .  A
C1140      C1141   1.412       .  A
C1141      C1142   1.400       .  A
C1141     Br1148   1.922       .  S
C1142      H1147   1.083       .  S
C1142      C1143   1.408       .  A
C1143      C1144   1.421       .  A
C1144     Br1145   1.924       .  S
C1149      H1156   1.083       .  S
C1149      C1150   1.400       .  A
C1149      C1154   1.400       .  A
C1150      C1151   1.407       .  A
C1151      C1152   1.399       .  A
C1151     Br1158   1.920       .  S
C1152      H1157   1.083       .  S
C1152      C1153   1.406       .  A
C1153      C1154   1.416       .  A
C1154     Br1155   1.922       .  S
C1159      H1166   1.083       .  S
C1159      C1160   1.408       .  A
C1159      C1164   1.400       .  A
C1160      C1161   1.417       .  A
C1161      C1162   1.399       .  A
C1161     Br1168   1.918       .  S
C1162      H1167   1.083       .  S
C1162      C1163   1.399       .  A
C1163      C1164   1.407       .  A
C1164     Br1165   1.919       .  S
C1169      H1176   1.083       .  S
C1169      C1170   1.407       .  A
C1169      C1174   1.399       .  A
C1170      C1171   1.417       .  A
C1171      C1172   1.401       .  A
C1171     Br1178   1.922       .  S
C1172      H1177   1.083       .  S
C1172      C1173   1.401       .  A
C1173      C1174   1.408       .  A
C1174     Br1175   1.920       .  S
C1179      H1186   1.083       .  S
C1179      C1180   1.401       .  A
C1179      C1184   1.405       .  A
C1180      C1181   1.406       .  A
C1181      C1182   1.394       .  A
C1181     Br1188   1.922       .  S
C1182      H1187   1.083       .  S
C1182      C1183   1.409       .  A
C1183      C1184   1.422       .  A
C1184     Br1185   1.922       .  S
C1189      H1196   1.083       .  S
C1189      C1190   1.408       .  A
C1189      C1194   1.400       .  A
C1190      C1191   1.417       .  A
C1191      C1192   1.398       .  A
C1191     Br1198   1.917       .  S
C1192      H1197   1.084       .  S
C1192      C1193   1.399       .  A
C1193      C1194   1.409       .  A
C1194     Br1195   1.920       .  S
C1199      H1206   1.083       .  S
C1199      C1200   1.400       .  A
C1199      C1204   1.396       .  A
C1200      C1201   1.406       .  A
C1201      C1202   1.397       .  A
C1201     Br1208   1.919       .  S
C1202      H1207   1.083       .  S
C1202      C1203   1.406       .  A
C1203      C1204   1.414       .  A
C1204     Br1205   1.920       .  S
C1209      H1216   1.083       .  S
C1209      C1210   1.404       .  A
C1209      C1214   1.393       .  A
C1210      C1211   1.413       .  A
C1211      C1212   1.402       .  A
C1211     Br1218   1.920       .  S
C1212      H1217   1.083       .  S
C1212      C1213   1.406       .  A
C1213      C1214   1.413       .  A
C1214     Br1215   1.924       .  S
C1219      H1226   1.083       .  S
C1219      C1220   1.398       .  A
C1219      C1224   1.397       .  A
C1220      C1221   1.407       .  A
C1221      C1222   1.401       .  A
C1221     Br1228   1.918       .  S
C1222      H1227   1.083       .  S
C1222      C1223   1.404       .  A
C1223      C1224   1.409       .  A
C1224     Br1225   1.908       .  S
C1229      H1236   1.083       .  S
C1229      C1230   1.404       .  A
C1229      C1234   1.398       .  A
C1230      C1231   1.415       .  A
C1231      C1232   1.398       .  A
C1231     Br1238   1.923       .  S
C1232      H1237   1.083       .  S
C1232      C1233   1.406       .  A
C1233      C1234   1.419       .  A
C1234     Br1235   1.924       .  S
C1239      H1246   1.084       .  S
C1239      C1240   1.397       .  A
C1239      C1244   1.395       .  A
C1240      C1241   1.405       .  A
C1241      C1242   1.404       .  A
C1241     Br1248   1.917       .  S
C1242      H1247   1.083       .  S
C1242      C1243   1.412       .  A
C1243      C1244   1.421       .  A
C1244     Br1245   1.923       .  S
