geometry optimzed in LAMMPS
_audit_creation_date              2020-11-30 
_audit_creation_method            'lammps2cif' 
_symmetry_space_group_name_H-M    'P1' 
_symmetry_Int_Tables_number       1 
_symmetry_cell_setting            triclinic 
loop_ 
_symmetry_equiv_pos_as_xyz 
  x,y,z 
_cell_length_a                    31.000438979301144 
_cell_length_b                    26.987273306035387 
_cell_length_c                    25.166318898070113 
_cell_angle_alpha                 88.65795237851903 
_cell_angle_beta                  87.85054124397261 
_cell_angle_gamma                 88.98648609138776 
loop_ 
_atom_site_label 
_atom_site_type_symbol 
_atom_site_fract_x 
_atom_site_fract_y 
_atom_site_fract_z 
_atom_site_charge 
C1          C  0.19176405  0.42292605  0.00755423     0.42210
N2          N  0.16537505  0.35722749  0.97925876     0.01100
C3          C  0.98423481  0.23222793  0.05224039    -0.06780
H4          H  0.06208150  0.27006812  0.20937045     0.06590
C5          C  0.20579629  0.19111593  0.11618251    -0.07130
Co6        Co  0.07739734  0.33760771  0.02250699     0.74180
N7          N  0.08070010  0.29135532  0.12924395    -0.26310
Co8        Co  0.07796000  0.22456469  0.09039853     0.74070
C9          C  0.19322794  0.21405152  0.16693253     0.42310
N10         N  0.21641716  0.22114153  0.99268087     0.00710
N11         N  0.13666329  0.20218158  0.12122025     0.00820
N12         N  0.98587850  0.30763134  0.01054686    -0.47150
H13         H  0.13077325  0.44015634  0.05985985     0.06580
N14         N  0.08225028  0.33467872  0.10401136     0.01110
N15         N  0.07307703  0.15768059  0.05093881     0.00850
C16         C  0.04820674  0.09039100  0.02075314     0.42450
N17         N  0.21514053  0.26434616  0.96733894    -0.25760
C18         C  0.03616175  0.35356180  0.91190361    -0.06680
N19         N  0.19990704  0.38480962  0.97540434    -0.46870
N20         N  0.03896831  0.12856559  0.05311160    -0.47090
C21         C  0.04933285  0.34247171  0.85674813     0.42220
N22         N  0.02283197  0.29615778  0.03196698     0.01090
N23         N  0.14669306  0.22873070  0.90171578    -0.25780
N24         N  0.13496611  0.37485643  0.01193681    -0.26280
N25         N  0.15425341  0.18482172  0.92356788     0.00730
H26         H  0.14519854  0.25683287  0.82248298     0.06620
H27         H  0.11044012  0.07625832  0.96985453     0.06660
N28         N  0.02294648  0.25217493  0.05613424    -0.26330
N29         N  0.16896025  0.18662190  0.08972066    -0.25940
N30         N  0.10089224  0.32304218  0.90886865     0.01100
C31         C  0.06581516  0.35232598  0.18497277     0.42490
C32         C  0.25555244  0.28129629  0.96199615    -0.07190
N33         N  0.10447563  0.14106709  0.01896913    -0.25940
H34         H  0.23801497  0.18654386  0.09926246     0.06640
N35         N  0.07241077  0.37207970  0.13569022    -0.47160
H36         H  0.26516035  0.31510550  0.94131232     0.06630
C37         C  0.15936681  0.17535252  0.83862532     0.42330
C38         C  0.14881360  0.41673010  0.03238122    -0.06690
Co39       Co  0.15728999  0.29368469  0.93868290     0.73820
N40         N  0.25585399  0.20636968  0.00425717    -0.46880
C41         C  0.96024452  0.26924247  0.02199149     0.42600
N42         N  0.08995397  0.32375952  0.85862116    -0.46870
Co43       Co  0.16150158  0.18120183  0.00654324     0.73890
C44         C  0.09180244  0.09838911  0.99801203    -0.07200
C45         C  0.07061597  0.29882299  0.18041557    -0.06760
N46         N  0.07006012  0.33992687  0.94089142    -0.26290
N47         N  0.14990701  0.21877931  0.16683474    -0.47050
H48         H  0.97447866  0.19628027  0.06767903     0.06600
C49         C  0.14462949  0.22519322  0.84972216    -0.07170
Cl50       Cl  0.11857687  0.25910610  0.01475970    -0.50170
C51         C  0.28210478  0.24280799  0.98712482     0.42360
H52         H  0.00581195  0.36703728  0.92849216     0.06570
N53         N  0.16471714  0.15190926  0.88660374    -0.46880
C54         C  0.46525531  0.23914007  0.00468932     0.42210
N55         N  0.53054696  0.23377984  0.02878672     0.01100
C56         C  0.70441556  0.37200771  0.94573563    -0.06780
H57         H  0.62618383  0.25986728  0.79789184     0.06590
C58         C  0.67831672  0.12057563  0.87792927    -0.07130
Co59       Co  0.58147453  0.31616791  0.98367163     0.74180
N60         N  0.61425911  0.29045935  0.87474252    -0.26310
Co61       Co  0.66993191  0.27028393  0.91099588     0.74070
C62         C  0.68295589  0.14164410  0.82399880     0.42310
N63         N  0.61489371  0.12350430  0.00426923     0.00710
N64         N  0.66718121  0.19983916  0.87884438     0.00820
N65         N  0.64650207  0.40337347  0.99166587    -0.47150
H66         H  0.47789287  0.30980680  0.95456778     0.06580
N67         N  0.57926577  0.30596079  0.90087859     0.01110
N68         N  0.72480548  0.24698991  0.94752414     0.00850
C69         C  0.79027710  0.23561949  0.96534883     0.42450
N70         N  0.58383794  0.14317543  0.03455801    -0.25760
C71         C  0.55276983  0.34452505  0.09993647    -0.06680
N72         N  0.49240028  0.21251861  0.03547219    -0.46870
N73         N  0.76324014  0.26638001  0.93966695    -0.47090
C74         C  0.55504395  0.31869344  0.15222575     0.42220
N75         N  0.63832899  0.35879265  0.97292083     0.01090
N76         N  0.64474737  0.19022309  0.10009767    -0.25780
N77         N  0.52904739  0.27266503  0.99618939    -0.26280
N78         N  0.67746864  0.17149346  0.07209953     0.00730
H79         H  0.63568686  0.20902138  0.18255350     0.06620
H80         H  0.77569259  0.16502964  0.01565849     0.06660
N81         N  0.67181092  0.33995706  0.94575622    -0.26330
N82         N  0.66856939  0.15921922  0.90894751    -0.25940
N83         N  0.59624481  0.28223005  0.09474696     0.01100
C84         C  0.55821469  0.28516541  0.82354357     0.42490
C85         C  0.55121940  0.11190760  0.04042429    -0.07190
N86         N  0.72553752  0.20586216  0.97683408    -0.25940
H87         H  0.68725124  0.08383364  0.89217016     0.06640
N88         N  0.54440059  0.30165661  0.87205712    -0.47160
H89         H  0.52127479  0.11834901  0.06280361     0.06630
C90         C  0.70033910  0.17681927  0.15081095     0.42330
C91         C  0.48909205  0.27939176  0.97947249    -0.06690
Co92       Co  0.58848550  0.21235791  0.06513049     0.73820
N93         N  0.60452384  0.07928371  0.98696096    -0.46880
C94         C  0.68779941  0.41421600  0.97586092     0.42600
N95         N  0.58621956  0.28451936  0.14559857    -0.46870
Co96       Co  0.67186166  0.16365483  0.99054654     0.73890
C97         C  0.76564853  0.19621243  0.99119756    -0.07200
C98         C  0.60449464  0.27833031  0.82577653    -0.06760
N99         N  0.58055814  0.31985731  0.06697234    -0.26290
N100        N  0.67582913  0.19074561  0.82832288    -0.47050
H101        H  0.73592203  0.36657025  0.92668004     0.06600
C102        C  0.65573908  0.19398062  0.15055399    -0.07170
Cl103      Cl  0.62792494  0.24047248  0.98741283    -0.50170
C104        C  0.56491851  0.06992986  0.00926150     0.42360
H105        H  0.52841354  0.37077685  0.08684665     0.06570
N106        N  0.71211890  0.16350740  0.10081505    -0.46880
C107        C  0.20031082  0.77752872  0.00588903     0.42210
N108        N  0.26381637  0.76773743  0.03295240     0.01100
C109        C  0.44720222  0.88324802  0.94161515    -0.06780
H110        H  0.35316209  0.79097074  0.79751275     0.06590
C111        C  0.40984566  0.63819806  0.88448187    -0.07130
Co112      Co  0.32220821  0.84519126  0.99007462     0.74180
N113        N  0.34819082  0.81362150  0.87918783    -0.26310
Co114      Co  0.40399148  0.78697887  0.91410088     0.74070
C115        C  0.41877415  0.65807623  0.83031543     0.42310
N116        N  0.34024770  0.65005356  0.01036536     0.00710
N117        N  0.39741655  0.71713736  0.88243412     0.00820
N118        N  0.39652660  0.92079767  0.99497943    -0.47150
H119        H  0.21736407  0.84877033  0.95836083     0.06580
N120        N  0.31782140  0.83720314  0.90733029     0.01110
N121        N  0.45812182  0.75920329  0.95214879     0.00850
C122        C  0.52142229  0.74529087  0.97934000     0.42450
N123        N  0.30980788  0.67255633  0.03916162    -0.25760
C124        C  0.30653857  0.88737578  0.10463798    -0.06680
N125        N  0.22514032  0.74810668  0.03624416    -0.46870
N126        N  0.49792058  0.77592821  0.94810341    -0.47090
C127        C  0.29870092  0.86518595  0.15828185     0.42220
N128        N  0.38259216  0.87820351  0.97714382     0.01090
N129        N  0.37193593  0.71333788  0.10751690    -0.25780
N130        N  0.26534207  0.80814585  0.00248457    -0.26280
N131        N  0.40285261  0.69065159  0.07962757     0.00730
H132        H  0.36264654  0.72915027  0.19051020     0.06620
H133        H  0.49890737  0.67923320  0.03230067     0.06660
N134        N  0.41202187  0.85565701  0.94649857    -0.26330
N135        N  0.39730114  0.67731886  0.91392591    -0.25940
N136        N  0.32411430  0.80983761  0.10402127     0.01100
C137        C  0.29220418  0.83232426  0.82929421     0.42490
C138        C  0.27635283  0.64277522  0.04664263    -0.07190
N139        N  0.45492544  0.72010300  0.98428086    -0.25940
H140        H  0.41893064  0.60219756  0.90065791     0.06640
N141        N  0.28368178  0.84888135  0.87893521    -0.47160
H142        H  0.24699374  0.65172062  0.06898832     0.06630
C143        C  0.42328918  0.68585588  0.16032098     0.42330
C144        C  0.22623787  0.81785752  0.98403453    -0.06690
Co145      Co  0.31747121  0.74085966  0.07132842     0.73820
N146        N  0.32982769  0.60463518  0.99802790    -0.46880
C147        C  0.43695437  0.92590655  0.97337111     0.42600
N148        N  0.31067029  0.81731749  0.15365426    -0.46870
Co149      Co  0.39877386  0.68357696  0.99706750     0.73890
C150        C  0.49297385  0.70895731  0.00407692    -0.07200
C151        C  0.33515264  0.80916916  0.82930096    -0.06760
N152        N  0.32244989  0.85045130  0.07382663    -0.26290
N153        N  0.41032007  0.70716511  0.83305048    -0.47050
H154        H  0.47668883  0.87386184  0.91952694     0.06600
C155        C  0.38195726  0.71257804  0.15883731    -0.07170
Cl156      Cl  0.36069188  0.76423438  0.99320040    -0.50170
C157        C  0.29008393  0.59779338  0.02030666     0.42360
H158        H  0.29472815  0.92273790  0.08959059     0.06570
N159        N  0.43453008  0.67411726  0.10964272    -0.46880
C160        C  0.92743470  0.93246944  0.98897486     0.42210
N161        N  0.90338574  0.86413738  0.96048262     0.01100
C162        C  0.72601409  0.73195268  0.04661307    -0.06780
H163        H  0.80920188  0.76727953  0.19419374     0.06590
C164        C  0.94658784  0.67336070  0.10130226    -0.07130
Co165      Co  0.81690843  0.83774157  0.00699607     0.74180
N166        N  0.82561196  0.79134846  0.11451015    -0.26310
Co167      Co  0.82190875  0.72442909  0.07551889     0.74070
C168        C  0.93357127  0.68436977  0.15648658     0.42310
N169        N  0.95752526  0.72929305  0.97894944     0.00710
N170        N  0.88047176  0.69989014  0.10535421     0.00820
N171        N  0.72462854  0.80626162  0.00282071    -0.47150
H172        H  0.86670778  0.94448017  0.04332720     0.06580
N173        N  0.82275775  0.83482999  0.08951556     0.01110
N174        N  0.81665411  0.65756655  0.03503132     0.00850
C175        C  0.79385970  0.58797484  0.00710717     0.42450
N176        N  0.95478049  0.77182225  0.95220820    -0.25760
C177        C  0.77318963  0.84726924  0.89717942    -0.06680
N178        N  0.93656218  0.89454441  0.95623561    -0.46870
N179        N  0.78368612  0.62664395  0.03872785    -0.47090
C180        C  0.78542453  0.83461018  0.84251577     0.42220
N181        N  0.76356591  0.79443595  0.01858004     0.01090
N182        N  0.89491219  0.72987625  0.88215179    -0.25780
N183        N  0.87285185  0.87954804  0.99442928    -0.26280
N184        N  0.89814996  0.68680281  0.90780060     0.00730
H185        H  0.90800360  0.75204230  0.80087273     0.06620
H186        H  0.85607337  0.57658430  0.95494136     0.06660
N187        N  0.76532955  0.75122551  0.04408821    -0.26330
N188        N  0.91179778  0.68438721  0.07274714    -0.25940
N189        N  0.83948489  0.82122296  0.89183367     0.01100
C190        C  0.80334543  0.84934590  0.17120448     0.42490
C191        C  0.99303729  0.79352086  0.95046703    -0.07190
N192        N  0.84814406  0.64198407  0.00249003    -0.25940
H193        H  0.97748510  0.66062789  0.08507297     0.06640
N194        N  0.80823520  0.87001304  0.12184589    -0.47160
H195        H  0.00064655  0.82791171  0.92973151     0.06630
C196        C  0.91328681  0.67004035  0.82542684     0.42330
C197        C  0.88509955  0.92271939  0.01460763    -0.06690
Co198      Co  0.89818864  0.79719556  0.92068325     0.73820
N199        N  0.99655792  0.72040559  0.99654649    -0.46880
C200        C  0.69937177  0.76871580  0.01923211     0.42600
N201        N  0.82704545  0.81903134  0.84220052    -0.46870
Co202      Co  0.90421381  0.68440806  0.99038076     0.73890
C203        C  0.83679424  0.59824006  0.98287877    -0.07200
C204        C  0.81601797  0.79737394  0.16616258    -0.06760
N205        N  0.80864542  0.83732010  0.92486255    -0.26290
N206        N  0.89212050  0.70078992  0.15546827    -0.47050
H207        H  0.71725573  0.69729509  0.06618249     0.06600
C208        C  0.90244743  0.72267678  0.83018097    -0.07170
Cl209      Cl  0.86030080  0.76091138  0.99842475    -0.50170
C210        C  0.02002698  0.76001452  0.98092984     0.42360
H211        H  0.74245255  0.86017447  0.91364766     0.06570
N212        N  0.91041811  0.65061443  0.87552586    -0.46880
C213        C  0.22498841  0.17682244  0.49568943     0.42210
N214        N  0.29425602  0.17431868  0.47501529     0.01100
C215        C  0.44314828  0.25535368  0.65241685    -0.06780
H216        H  0.29884534  0.32913390  0.68144929     0.06590
C217        C  0.32275867  0.39979410  0.47078266    -0.07130
Co218      Co  0.34910328  0.18218694  0.57143864     0.74180
N219        N  0.32359820  0.27746807  0.62218036    -0.26310
Co220      Co  0.38025785  0.30419914  0.58109162     0.74070
C221        C  0.30251318  0.41962386  0.51902393     0.42310
N222        N  0.33425727  0.29565992  0.39536411     0.00710
N223        N  0.34598571  0.36019803  0.54023406     0.00820
N224        N  0.42665368  0.17387441  0.65080458    -0.47150
H225        H  0.23830656  0.16972083  0.58428213     0.06580
N226        N  0.31365691  0.23087262  0.61477976     0.01110
N227        N  0.44001649  0.32414584  0.54132869     0.00850
C228        C  0.50977410  0.32845501  0.52214546     0.42450
N229        N  0.32084952  0.24953077  0.39786628    -0.25760
C230        C  0.41201412  0.09636821  0.54106445    -0.06680
N231        N  0.25498963  0.17900586  0.45502532    -0.46870
N232        N  0.47921557  0.32302797  0.56216079    -0.47090
C233        C  0.43017202  0.07671825  0.49172944     0.42220
N234        N  0.40318683  0.20086255  0.61682108     0.01090
N235        N  0.40863261  0.21884275  0.39227042    -0.25780
N236        N  0.29274481  0.17006506  0.52730159    -0.26280
N237        N  0.42300472  0.26358220  0.40107307     0.00730
H238        H  0.41676126  0.17239962  0.32400797     0.06620
H239        H  0.49701218  0.33106935  0.43267552     0.06660
N240        N  0.41252631  0.24835335  0.61852581    -0.26330
N241        N  0.34907041  0.36328990  0.48777573    -0.25940
N242        N  0.38709145  0.13682611  0.47322301     0.01100
C243        C  0.26851451  0.25130199  0.67634091     0.42490
C244        C  0.29250321  0.24197331  0.36106981    -0.07190
N245        N  0.44234735  0.32778512  0.48894814    -0.25940
H246        H  0.31774273  0.41030217  0.42972482     0.06640
N247        N  0.28206260  0.21454104  0.64576261    -0.47160
H248        H  0.28099247  0.20605204  0.35036284     0.06630
C249        C  0.45449946  0.24548622  0.32692214     0.42330
C250        C  0.25046231  0.16989388  0.54362148    -0.06690
Co251      Co  0.35281152  0.19348051  0.43460671     0.73820
N252        N  0.31810857  0.31985141  0.35344031    -0.46880
C253        C  0.45293044  0.20688750  0.67328883     0.42600
N254        N  0.41342230  0.10326688  0.45103693    -0.46870
Co255      Co  0.38726380  0.31398042  0.44325775     0.73890
C256        C  0.48466831  0.33144029  0.47338208    -0.07200
C257        C  0.29687559  0.29381906  0.66233173    -0.06760
N258        N  0.38580677  0.13343846  0.52559201    -0.26290
N259        N  0.31831383  0.39345015  0.56073998    -0.47050
H260        H  0.45535942  0.29086493  0.66336321     0.06600
C261        C  0.42694521  0.20399891  0.34563641    -0.07170
Cl262      Cl  0.36743555  0.24850203  0.50762565    -0.50170
C263        C  0.29084773  0.28770879  0.33118668     0.42360
H264        H  0.41804742  0.08522303  0.58169781     0.06570
N265        N  0.45036406  0.27985146  0.36406669    -0.46880
C266        C  0.79098965  0.21079616  0.34290679     0.42210
N267        N  0.84341841  0.22492461  0.39454947     0.01100
C268        C  0.82510299  0.21235445  0.66986147    -0.06780
H269        H  0.72964471  0.34939759  0.58730417     0.06590
C270        C  0.86652045  0.42723758  0.50191201    -0.07130
Co271      Co  0.81560903  0.20140471  0.50759151     0.74180
N272        N  0.77203112  0.29176849  0.55494865    -0.26310
Co273      Co  0.83499657  0.29934082  0.58738152     0.74070
C274        C  0.82501987  0.44220091  0.52744626     0.42310
N275        N  0.92037060  0.34147828  0.42411846     0.00710
N276        N  0.84170481  0.36885255  0.55373870     0.00820
N277        N  0.81150465  0.14980006  0.61561121    -0.47150
H278        H  0.74560048  0.19462624  0.41665228     0.06580
N279        N  0.76447073  0.25363712  0.52479024     0.01110
N280        N  0.89687078  0.30655980  0.61813841     0.00850
C281        C  0.94972864  0.31366360  0.66993286     0.42450
N282        N  0.91134028  0.30431913  0.39362399    -0.25760
C283        C  0.87546882  0.10471101  0.51115293    -0.06680
N284        N  0.83325090  0.22327520  0.34383982    -0.46870
N285        N  0.90695012  0.30463853  0.66897119    -0.47090
C286        C  0.91800555  0.09140937  0.48760313     0.42220
N287        N  0.82218778  0.19045116  0.58837825     0.01090
N288        N  0.96703018  0.23966845  0.45698161    -0.25780
N289        N  0.81045914  0.21346195  0.42682225    -0.26280
N290        N  0.97632113  0.27603103  0.48842640     0.00730
H291        H  0.00351355  0.18041140  0.42244330     0.06620
H292        H  0.99662026  0.33444638  0.60041468     0.06660
N293        N  0.82939755  0.22794746  0.61913182    -0.26330
N294        N  0.87459514  0.38116162  0.52136702    -0.25940
N295        N  0.89979209  0.16359113  0.45947781     0.01100
C296        C  0.70092164  0.29026348  0.53443885     0.42490
C297        C  0.91951591  0.31798133  0.34292759    -0.07190
N298        N  0.93046142  0.31776757  0.58645717    -0.25940
H299        H  0.88651667  0.44720027  0.47285260     0.06640
N300        N  0.72292525  0.25108419  0.51253995    -0.47160
H301        H  0.92108250  0.29280893  0.31004930     0.06630
C302        C  0.03778372  0.23424568  0.47743056     0.42330
C303        C  0.77599355  0.20541487  0.39852762    -0.06690
Co304      Co  0.90505596  0.23300045  0.42523452     0.73820
N305        N  0.93662918  0.37956851  0.39657193    -0.46880
C306        C  0.81298184  0.16024802  0.66764925     0.42600
N307        N  0.93073504  0.12955416  0.45627068    -0.46870
Co308      Co  0.92596442  0.33007238  0.50550121     0.73890
C309        C  0.96516329  0.32299644  0.61554667    -0.07200
C310        C  0.73415292  0.31733876  0.56257102    -0.06760
N311        N  0.86699625  0.15070595  0.49159597    -0.26290
N312        N  0.81181620  0.40388611  0.55823078    -0.47050
H313        H  0.82492161  0.23612462  0.70390061     0.06600
C314        C  0.00289668  0.21179018  0.44799051    -0.07170
Cl315      Cl  0.87030165  0.26615007  0.50633418    -0.50170
C316        C  0.93737783  0.36770226  0.34471725     0.42360
H317        H  0.85550327  0.08430864  0.53985097     0.06570
N318        N  0.01795168  0.27432644  0.50130748    -0.46880
C319        C  0.04473315  0.68030717  0.33936297     0.42210
N320        N  0.09577629  0.69600546  0.39201399     0.01100
C321        C  0.06256098  0.71683222  0.66551383    -0.06780
H322        H  0.96117816  0.81769000  0.55333238     0.06590
C323        C  0.08008090  0.91820023  0.47685620    -0.07130
Co324      Co  0.06851077  0.67873842  0.50680948     0.74180
N325        N  0.01267732  0.76433636  0.53756571    -0.26310
Co326      Co  0.06764260  0.79043270  0.57194633     0.74070
C327        C  0.03617187  0.92552727  0.49955885     0.42310
N328        N  0.14947617  0.83101036  0.40582893     0.00710
N329        N  0.06192136  0.85666472  0.52902681     0.00820
N330        N  0.05697102  0.64479280  0.62346366    -0.47150
H331        H  0.00017910  0.65452622  0.40957418     0.06580
N332        N  0.01383637  0.72186700  0.51257446     0.01110
N333        N  0.12421155  0.81558835  0.60409898     0.00850
C334        C  0.17357006  0.83630668  0.65658225     0.42450
N335        N  0.14914473  0.78779995  0.38212895    -0.25760
C336        C  0.13714520  0.59394399  0.52277861    -0.06680
N337        N  0.08537662  0.69759463  0.34130200    -0.46870
N338        N  0.13416003  0.81576819  0.65498191    -0.47090
C339        C  0.18082754  0.58366336  0.50123215     0.42220
N340        N  0.07047866  0.68050626  0.59001256     0.01090
N341        N  0.20643920  0.74634810  0.45905111    -0.25780
N342        N  0.06431326  0.67935007  0.42386415    -0.26280
N343        N  0.20623463  0.78903632  0.48357150     0.00730
H344        H  0.25506160  0.69033004  0.44451960     0.06620
H345        H  0.21805894  0.86239335  0.58681172     0.06660
N346        N  0.07195651  0.72353268  0.61366191    -0.26330
N347        N  0.09316950  0.87395407  0.49703781    -0.25940
N348        N  0.15750480  0.65302505  0.46814301     0.01100
C349        C  0.94971227  0.74806052  0.50498950     0.42490
C350        C  0.15941846  0.79483976  0.33035046    -0.07190
N351        N  0.15526656  0.83325477  0.57218472    -0.25940
H352        H  0.09884690  0.94208917  0.45017617     0.06640
N353        N  0.97663372  0.71040653  0.49306755    -0.47160
H354        H  0.16720094  0.76545825  0.30289880     0.06630
C355        C  0.26989052  0.75982358  0.49199849     0.42330
C356        C  0.03090579  0.66806151  0.39427342    -0.06690
Co357      Co  0.15239269  0.72029808  0.42436362     0.73820
N358        N  0.16232923  0.86727078  0.37253218    -0.46880
C359        C  0.05208403  0.66463279  0.67237941     0.42600
N360        N  0.19124885  0.62208295  0.46800031    -0.46870
Co361      Co  0.15118484  0.83304730  0.48930448     0.73890
C362        C  0.18774842  0.84749811  0.60181705    -0.07200
C363        C  0.97262431  0.78358273  0.53557897    -0.06760
N364        N  0.12557356  0.63747210  0.50001233    -0.26290
N365        N  0.02756122  0.88624435  0.53163652    -0.47050
H366        H  0.05515728  0.74650346  0.69275101     0.06600
C367        C  0.24545619  0.72530641  0.46177466    -0.07170
Cl368      Cl  0.10994824  0.75569552  0.49805643    -0.50170
C369        C  0.16862014  0.84751634  0.32373312     0.42360
H370        H  0.11746538  0.57275083  0.55105950     0.06570
N371        N  0.24366019  0.79849104  0.50403574    -0.46880
C372        C  0.53596255  0.67093720  0.33977773     0.42210
N373        N  0.58883274  0.68551069  0.38978662     0.01100
C374        C  0.56937078  0.69651787  0.66595135    -0.06780
H375        H  0.47035460  0.80286573  0.57585036     0.06590
C376        C  0.58852996  0.89932260  0.47877418    -0.07130
Co377      Co  0.56800933  0.66379609  0.50595242     0.74180
N378        N  0.51767594  0.75006435  0.54667519    -0.26310
Co379      Co  0.57548428  0.77251473  0.57553984     0.74070
C380        C  0.54547039  0.90873781  0.50193796     0.42310
N381        N  0.64829935  0.81580442  0.40589424     0.00710
N382        N  0.56997380  0.84041632  0.53452943     0.00820
N383        N  0.55825451  0.62677308  0.62168482    -0.47150
H384        H  0.49376804  0.64438833  0.41240816     0.06580
N385        N  0.51498539  0.70891288  0.51986785     0.01110
N386        N  0.63475993  0.79387427  0.60324251     0.00850
C387        C  0.68756759  0.81370831  0.65181956     0.42450
N388        N  0.64505582  0.77469171  0.37915563    -0.25760
C389        C  0.63967704  0.57877801  0.51271317    -0.06680
N390        N  0.57672043  0.68759497  0.33995933    -0.46870
N391        N  0.64687064  0.79578436  0.65314475    -0.47090
C392        C  0.68117613  0.56988565  0.48404402     0.42220
N393        N  0.57450346  0.66183343  0.58914216     0.01090
N394        N  0.70589674  0.72583737  0.44713530    -0.25780
N395        N  0.55864818  0.66850043  0.42333910    -0.26280
N396        N  0.70846520  0.76655724  0.47479006     0.00730
H397        H  0.75293725  0.66925971  0.42455075     0.06620
H398        H  0.72826424  0.83624507  0.57590870     0.06660
N399        N  0.57921932  0.70380582  0.61424897    -0.26330
N400        N  0.60076254  0.85585621  0.50086844    -0.25940
N401        N  0.65285550  0.63725925  0.45475279     0.01100
C402        C  0.45022802  0.73573719  0.52776436     0.42490
C403        C  0.65383901  0.78480504  0.32761199    -0.07190
N404        N  0.66484786  0.80940538  0.56898346    -0.25940
H405        H  0.60681023  0.92056128  0.44906460     0.06640
N406        N  0.47520674  0.69904004  0.50767286    -0.47160
H407        H  0.66001181  0.75706420  0.29778546     0.06630
C408        C  0.77116215  0.73450266  0.47571146     0.42330
C409        C  0.52386562  0.65822048  0.39546511    -0.06690
Co410      Co  0.64799299  0.70545748  0.41670955     0.73820
N411        N  0.66105313  0.85356388  0.37501967    -0.46880
C412        C  0.55448954  0.64572655  0.67116099     0.42600
N413        N  0.68694550  0.60772653  0.44935041    -0.46870
Co414      Co  0.65581621  0.81274592  0.48761312     0.73890
C415        C  0.69933664  0.82241971  0.59538933    -0.07200
C416        C  0.47821944  0.76991668  0.55361708    -0.06760
N417        N  0.62435029  0.62145574  0.49125969    -0.26290
N418        N  0.53616244  0.87106059  0.53639828    -0.47050
H419        H  0.56346487  0.72607141  0.69375635     0.06600
C420        C  0.74464870  0.70323096  0.44477110    -0.07170
Cl421      Cl  0.61178510  0.73851395  0.49658863    -0.50170
C422        C  0.66538277  0.83708992  0.32484967     0.42360
H423        H  0.62410269  0.55719296  0.54442386     0.06570
N424        N  0.74732962  0.77346484  0.49227861    -0.46880
C425        C  0.84268823  0.75637882  0.44172641    -0.20550
C426        C  0.81724292  0.73184600  0.48065251    -0.07120
C427        C  0.83519897  0.71220495  0.52725717     0.13750
C428        C  0.87883100  0.71963439  0.53518688    -0.20610
C429        C  0.90400585  0.74565806  0.49705917    -0.07120
C430        C  0.88651715  0.76280081  0.44909367     0.13740
C431        C  0.91403043  0.78743892  0.40591282    -0.23960
H432        H  0.82801216  0.77133201  0.40618396     0.15020
H433        H  0.89347953  0.70479932  0.57079038     0.15050
C434        C  0.80833808  0.68361980  0.56818874    -0.23900
H435        H  0.89489619  0.79874754  0.37105604     0.05270
H436        H  0.94007069  0.76150126  0.39221777     0.08490
H437        H  0.92880862  0.82089636  0.42150023     0.08490
H438        H  0.79469491  0.65075694  0.54953605     0.08480
H439        H  0.78154996  0.70748757  0.58405407     0.08480
H440        H  0.82778840  0.67043377  0.60207092     0.05250
C441        C  0.33435723  0.70701337  0.50144511    -0.20550
C442        C  0.31504743  0.75407037  0.50667825    -0.07120
C443        C  0.33973425  0.79408728  0.52327558     0.13750
C444        C  0.38354459  0.78612149  0.53155739    -0.20610
C445        C  0.40340276  0.73986935  0.52270132    -0.07120
C446        C  0.37832200  0.69937474  0.50825799     0.13740
C447        C  0.39695599  0.64800964  0.49947062    -0.23960
H448        H  0.31524183  0.67582353  0.49088221     0.15020
H449        H  0.40255412  0.81689007  0.54342990     0.15050
C450        C  0.32109503  0.84553786  0.53111168    -0.23900
H451        H  0.37174306  0.62120939  0.49019425     0.05270
H452        H  0.41298316  0.63414062  0.53575462     0.08490
H453        H  0.42019180  0.64850242  0.46488176     0.08490
H454        H  0.29556503  0.84464756  0.56318765     0.08480
H455        H  0.30769683  0.86011466  0.49343674     0.08480
H456        H  0.34585275  0.87196088  0.54303836     0.05250
C457        C  0.93473191  0.00261247  0.47763020    -0.20550
C458        C  0.94633331  0.04821512  0.49754846    -0.07120
C459        C  0.98804158  0.05374652  0.51763393     0.13750
C460        C  0.01768255  0.01382730  0.51535712    -0.20610
C461        C  0.00618968  0.96830792  0.49486928    -0.07120
C462        C  0.96411783  0.96246940  0.47634230     0.13740
C463        C  0.95061022  0.91432811  0.45361204    -0.23960
H464        H  0.90308765  0.99892834  0.46132686     0.15020
H465        H  0.04945055  0.01777680  0.53125337     0.15050
C466        C  0.00172746  0.10062235  0.54337610    -0.23900
H467        H  0.91728644  0.91674303  0.43887045     0.05270
H468        H  0.95141784  0.88458158  0.48467367     0.08490
H469        H  0.97286658  0.90429530  0.41981043     0.08490
H470        H  0.01083630  0.09190462  0.58485483     0.08480
H471        H  0.03014987  0.11623648  0.52131252     0.08480
H472        H  0.97584789  0.12947057  0.54517046     0.05250
C473        C  0.73521520  0.50721219  0.45592684    -0.20550
C474        C  0.71726388  0.53632796  0.49686857    -0.07120
C475        C  0.73869058  0.53942265  0.54510112     0.13750
C476        C  0.77648635  0.51110620  0.55224687    -0.20610
C477        C  0.79367796  0.48070052  0.51196062    -0.07120
C478        C  0.77294996  0.47878700  0.46311197     0.13740
C479        C  0.78943131  0.44525166  0.41952599    -0.23960
H480        H  0.71936234  0.50646574  0.41827524     0.15020
H481        H  0.79204414  0.51146573  0.59011246     0.15050
C482        C  0.72236172  0.57323045  0.58850099    -0.23900
H483        H  0.76883798  0.44776245  0.38435269     0.05270
H484        H  0.78974680  0.40612669  0.43423422     0.08490
H485        H  0.82264510  0.45588740  0.40643629     0.08490
H486        H  0.68987777  0.56153320  0.60332257     0.08480
H487        H  0.72042057  0.61200902  0.57288125     0.08480
H488        H  0.74400591  0.57238845  0.62270998     0.05250
C489        C  0.44617215  0.98838542  0.47574946    -0.20550
C490        C  0.46142001  0.03536317  0.48689967    -0.07120
C491        C  0.50519240  0.04115109  0.49851545     0.13750
C492        C  0.53260136  0.99922744  0.50027803    -0.20610
C493        C  0.51677506  0.95175060  0.49212174    -0.07120
C494        C  0.47331452  0.94633400  0.47819627     0.13740
C495        C  0.45449087  0.89713757  0.46515581    -0.23960
H496        H  0.41252349  0.98425351  0.46662436     0.15020
H497        H  0.56601758  0.00323725  0.51048708     0.15050
C498        C  0.52270752  0.09138616  0.50990510    -0.23900
H499        H  0.44156543  0.89938710  0.42459451     0.05270
H500        H  0.42763906  0.88847022  0.49403894     0.08490
H501        H  0.47832313  0.86609373  0.46581011     0.08490
H502        H  0.50562303  0.10686182  0.54551580     0.08480
H503        H  0.51794905  0.11686643  0.47526090     0.08480
H504        H  0.55775575  0.08942021  0.51762382     0.05250
C505        C  0.25342479  0.54942297  0.52164183    -0.20550
C506        C  0.20996322  0.54037354  0.51185169    -0.07120
C507        C  0.19644005  0.49063881  0.50862201     0.13750
C508        C  0.22706505  0.45163670  0.51310243    -0.20610
C509        C  0.27055542  0.46101542  0.52182814    -0.07120
C510        C  0.28367329  0.51032093  0.52729728     0.13740
C511        C  0.32986292  0.52161892  0.53804488    -0.23960
H512        H  0.26388188  0.58737967  0.52427379     0.15020
H513        H  0.21725521  0.41364899  0.50856441     0.15050
C514        C  0.15043663  0.47836374  0.49771509    -0.23900
H515        H  0.33444224  0.56187995  0.54305140     0.05270
H516        H  0.35131956  0.50901209  0.50452848     0.08490
H517        H  0.33940028  0.50219592  0.57528139     0.08490
H518        H  0.14046251  0.49757376  0.46054730     0.08480
H519        H  0.12882568  0.48983823  0.53145134     0.08480
H520        H  0.14634274  0.43792327  0.49290002     0.05250
C521        C  0.63510155  0.34628518  0.51488902    -0.20550
C522        C  0.65173815  0.30000646  0.53298755    -0.07120
C523        C  0.62071433  0.26384679  0.54938894     0.13750
C524        C  0.57537722  0.27425828  0.54672410    -0.20610
C525        C  0.55881534  0.31987595  0.52684460    -0.07120
C526        C  0.58975779  0.35620080  0.51092703     0.13740
C527        C  0.57484170  0.40620661  0.49044861    -0.23960
H528        H  0.65781391  0.37476830  0.50264337     0.15020
H529        H  0.55262282  0.24600205  0.55947289     0.15050
C530        C  0.63535464  0.21421855  0.57123696    -0.23900
H531        H  0.60241893  0.43090451  0.48053479     0.05270
H532        H  0.55377383  0.42436674  0.52117472     0.08490
H533        H  0.55641943  0.40184706  0.45391871     0.08490
H534        H  0.65543212  0.21949622  0.60623643     0.08480
H535        H  0.65459176  0.19407657  0.54029060     0.08480
H536        H  0.60761055  0.19077908  0.58410554     0.05250
C537        C  0.15105936  0.16654239  0.45792749    -0.20550
C538        C  0.17747592  0.19245446  0.49139554    -0.07120
C539        C  0.15817957  0.23364479  0.51804608     0.13750
C540        C  0.11331852  0.24542682  0.51322591    -0.20610
C541        C  0.08607506  0.21866588  0.48068773    -0.07120
C542        C  0.10656063  0.17880223  0.45176991     0.13740
C543        C  0.08302881  0.14867775  0.41288785    -0.23960
H544        H  0.16558242  0.13593091  0.43615095     0.15020
H545        H  0.09961240  0.27669541  0.53459503     0.15050
C546        C  0.18543306  0.26748377  0.54902363    -0.23900
H547        H  0.10464503  0.12120679  0.39259436     0.05270
H548        H  0.05725643  0.12718247  0.43391910     0.08490
H549        H  0.06993204  0.17340862  0.38131892     0.08490
H550        H  0.21151021  0.28304868  0.52252279     0.08480
H551        H  0.20013884  0.24684309  0.58233490     0.08480
H552        H  0.16616526  0.29885784  0.56586876     0.05250
C553        C  0.97461891  0.65088950  0.69437235    -0.20550
C554        C  0.01735350  0.65011799  0.71128350    -0.07120
C555        C  0.02489983  0.64760237  0.76621130     0.13750
C556        C  0.98967731  0.64842261  0.80303001    -0.20610
C557        C  0.94710354  0.65384519  0.78612922    -0.07120
C558        C  0.93941877  0.65369472  0.73120602     0.13740
C559        C  0.89423462  0.65868116  0.71146054    -0.23960
H560        H  0.96885374  0.65372764  0.65217884     0.15020
H561        H  0.99565149  0.64917532  0.84516371     0.15050
C562        C  0.07020590  0.64668868  0.78591817    -0.23900
H563        H  0.89386571  0.65738146  0.66740250     0.05270
H564        H  0.87943978  0.69454716  0.72383673     0.08490
H565        H  0.87435104  0.62786244  0.72824999     0.08490
H566        H  0.08714615  0.68091862  0.77250117     0.08480
H567        H  0.08812240  0.61393749  0.77000821     0.08480
H568        H  0.07049442  0.64443509  0.83003400     0.05250
C569        C  0.00650058  0.68112913  0.19604495    -0.20550
C570        C  0.96131450  0.68377670  0.20403900    -0.07120
C571        C  0.94406923  0.68588892  0.25700106     0.13750
C572        C  0.97215179  0.68432824  0.29968666    -0.20610
C573        C  0.01727083  0.68177768  0.29167381    -0.07120
C574        C  0.03458979  0.68053881  0.23882119     0.13740
C575        C  0.08256757  0.67767578  0.22684413    -0.23960
H576        H  0.02026407  0.68014819  0.15594412     0.15020
H577        H  0.95847098  0.68583444  0.33979540     0.15050
C578        C  0.89616142  0.68930549  0.26956906    -0.23900
H579        H  0.09022446  0.67462446  0.18356172     0.05270
H580        H  0.09665312  0.64457889  0.24721654     0.08490
H581        H  0.09805519  0.71171852  0.24030166     0.08490
H582        H  0.87979978  0.65736920  0.25255089     0.08480
H583        H  0.88279245  0.72463947  0.25316358     0.08480
H584        H  0.88868364  0.68873810  0.31309883     0.05250
C585        C  0.77403719  0.85283034  0.74784644    -0.20550
C586        C  0.75800166  0.83216875  0.79583161    -0.07120
C587        C  0.71870406  0.80638661  0.79676082     0.13750
C588        C  0.69690614  0.80146060  0.74915598    -0.20610
C589        C  0.71310726  0.82158578  0.70033829    -0.07120
C590        C  0.75226493  0.84850051  0.70028205     0.13740
C591        C  0.77222632  0.87320095  0.65133279    -0.23960
H592        H  0.80433490  0.87233641  0.74761469     0.15020
H593        H  0.66712086  0.78100022  0.75016151     0.15050
C594        C  0.70045198  0.78210087  0.84709649    -0.23900
H595        H  0.80035891  0.89595563  0.66068827     0.05270
H596        H  0.74838642  0.89865049  0.63264473     0.08490
H597        H  0.78461198  0.84459491  0.62349720     0.08490
H598        H  0.69119886  0.81066071  0.87653694     0.08480
H599        H  0.72473149  0.75609092  0.86407566     0.08480
H600        H  0.67105731  0.76071583  0.83975469     0.05250
C601        C  0.77500274  0.86795543  0.26158072    -0.20550
C602        C  0.76662530  0.86213350  0.20786449    -0.07120
C603        C  0.72343836  0.85614564  0.19282095     0.13750
C604        C  0.69025735  0.85311953  0.23216293    -0.20610
C605        C  0.69903571  0.85516692  0.28616733    -0.07120
C606        C  0.74186276  0.86435283  0.30111632     0.13740
C607        C  0.75378813  0.86635512  0.35856817    -0.23960
H608        H  0.80817891  0.87153626  0.27295476     0.15020
H609        H  0.65762840  0.84547994  0.22094980     0.15050
C610        C  0.71246972  0.84851339  0.13585669    -0.23900
H611        H  0.78883250  0.87258191  0.36258997     0.05270
H612        H  0.74592602  0.83076453  0.37943452     0.08490
H613        H  0.73600006  0.89736302  0.37823218     0.08490
H614        H  0.72943872  0.81485030  0.12102157     0.08480
H615        H  0.72221152  0.88120654  0.11098456     0.08480
H616        H  0.67732412  0.84325874  0.13161416     0.05250
C617        C  0.52996830  0.63718538  0.76530731    -0.20550
C618        C  0.51995292  0.63292691  0.71176217    -0.07120
C619        C  0.47594654  0.62922525  0.69885570     0.13750
C620        C  0.44338917  0.63282459  0.73943716    -0.20610
C621        C  0.45350145  0.64038697  0.79249504    -0.07120
C622        C  0.49751937  0.64141761  0.80563838     0.13740
C623        C  0.51066262  0.65096215  0.86143720    -0.23960
H624        H  0.56349842  0.64101708  0.77511832     0.15020
H625        H  0.40973002  0.63302920  0.72917059     0.15050
C626        C  0.46279127  0.62544727  0.64209343    -0.23900
H627        H  0.54629814  0.65250971  0.86386508     0.05270
H628        H  0.49906778  0.62078987  0.88874318     0.08490
H629        H  0.49694583  0.68701710  0.87483752     0.08490
H630        H  0.47710282  0.59130057  0.62450149     0.08480
H631        H  0.47393025  0.65840236  0.61858221     0.08480
H632        H  0.42718197  0.62368690  0.63923525     0.05250
C633        C  0.49580179  0.68714689  0.19796294    -0.20550
C634        C  0.45160836  0.67857627  0.20616795    -0.07120
C635        C  0.43587833  0.66336256  0.25734898     0.13750
C636        C  0.46434009  0.66021916  0.29956226    -0.20610
C637        C  0.50831837  0.67159018  0.29226825    -0.07120
C638        C  0.52437367  0.68407399  0.24002206     0.13740
C639        C  0.57135829  0.69445423  0.22742467    -0.23960
H640        H  0.50791825  0.69770461  0.15842451     0.15020
H641        H  0.45169974  0.64940720  0.33866342     0.15050
C642        C  0.38961041  0.64848879  0.26764596    -0.23900
H643        H  0.57790016  0.70134239  0.18420346     0.05270
H644        H  0.59159075  0.66207890  0.23958212     0.08490
H645        H  0.58108761  0.72811096  0.24814196     0.08490
H646        H  0.38087078  0.61997864  0.23899261     0.08480
H647        H  0.36775571  0.68115360  0.26409110     0.08480
H648        H  0.38426181  0.63254227  0.30840017     0.05250
C649        C  0.24166961  0.87742133  0.76985643    -0.20550
C650        C  0.26047410  0.83221481  0.78645805    -0.07120
C651        C  0.24813770  0.78791021  0.76244264     0.13750
C652        C  0.21842775  0.79019658  0.72145224    -0.20610
C653        C  0.20114092  0.83560045  0.70342128    -0.07120
C654        C  0.21260627  0.87968230  0.72811069     0.13740
C655        C  0.19399323  0.92902199  0.71048567    -0.23960
H656        H  0.25056734  0.91124490  0.78878112     0.15020
H657        H  0.20938716  0.75645877  0.70245912     0.15050
C658        C  0.26520065  0.73797304  0.78070892    -0.23900
H659        H  0.20581380  0.95979404  0.73431062     0.05270
H660        H  0.15823869  0.92849058  0.71513041     0.08490
H661        H  0.20331575  0.93661169  0.66810148     0.08490
H662        H  0.25841488  0.73270227  0.82409136     0.08480
H663        H  0.30044765  0.73506365  0.77203721     0.08480
H664        H  0.24989221  0.70727786  0.76006491     0.05250
C665        C  0.27153494  0.88923806  0.24856879    -0.20550
C666        C  0.26218623  0.87686253  0.19641993    -0.07120
C667        C  0.21957911  0.86273448  0.18582236     0.13750
C668        C  0.18858471  0.85799217  0.22788922    -0.20610
C669        C  0.19873701  0.86683112  0.28065651    -0.07120
C670        C  0.24039317  0.88461568  0.29080214     0.13740
C671        C  0.25339677  0.89516270  0.34644434    -0.23960
H672        H  0.30428327  0.89913641  0.25696651     0.15020
H673        H  0.15688304  0.84414528  0.21999316     0.15050
C674        C  0.20745916  0.84888477  0.13075671    -0.23900
H675        H  0.28726980  0.90780149  0.34720121     0.05270
H676        H  0.25067541  0.86108766  0.37186351     0.08490
H677        H  0.23223814  0.92490554  0.36336426     0.08490
H678        H  0.22719436  0.81651707  0.11762967     0.08480
H679        H  0.21305310  0.88058384  0.10261800     0.08480
H680        H  0.17295615  0.83871445  0.12937170     0.05250
C681        C  0.63827357  0.71650056  0.00336572    -0.20550
C682        C  0.65415644  0.76436798  0.00675037    -0.07120
C683        C  0.62670313  0.80606873  0.99868968     0.13750
C684        C  0.58337079  0.79827551  0.98913294    -0.20610
C685        C  0.56725406  0.75026415  0.98777568    -0.07120
C686        C  0.59507899  0.70866842  0.99423157     0.13740
C687        C  0.58059549  0.65585343  0.99073288    -0.23960
H688        H  0.65977800  0.68471852  0.00802477     0.15020
H689        H  0.56170942  0.82986739  0.98376429     0.15050
C690        C  0.64209035  0.85864298  0.00125191    -0.23900
H691        H  0.60850509  0.62986974  0.98639321     0.05270
H692        H  0.56051539  0.65146039  0.95576454     0.08490
H693        H  0.56277186  0.64447547  0.02781682     0.08490
H694        H  0.66632448  0.86609942  0.96862854     0.08480
H695        H  0.65641599  0.86474610  0.04023003     0.08480
H696        H  0.61526262  0.88608203  0.99666320     0.05250
C697        C  0.12750718  0.81282785  0.01120788    -0.20550
C698        C  0.15430832  0.77172352  0.00106074    -0.07120
C699        C  0.13697011  0.72632697  0.98647083     0.13750
C700        C  0.09252241  0.72354427  0.98098802    -0.20610
C701        C  0.06572517  0.76502713  0.98981400    -0.07120
C702        C  0.08301201  0.80995603  0.00641667     0.13740
C703        C  0.05500779  0.85409737  0.02148090    -0.23960
H704        H  0.14147788  0.84709645  0.02354036     0.15020
H705        H  0.07870445  0.68921333  0.96862609     0.15050
C706        C  0.16522090  0.68154177  0.97475595    -0.23900
H707        H  0.07408592  0.88367659  0.03899631     0.05270
H708        H  0.02972857  0.84268026  0.05149083     0.08490
H709        H  0.03978516  0.87066438  0.98602762     0.08490
H710        H  0.18179802  0.66910168  0.01113197     0.08480
H711        H  0.18962335  0.69087748  0.94282568     0.08480
H712        H  0.14617124  0.64998729  0.96134406     0.05250
C713        C  0.49440598  0.23369190  0.80386794    -0.20550
C714        C  0.53209907  0.25804109  0.78557383    -0.07120
C715        C  0.54714896  0.25105257  0.73222924     0.13750
C716        C  0.52512076  0.21930855  0.69981718    -0.20610
C717        C  0.48437994  0.20118367  0.71544604    -0.07120
C718        C  0.46988815  0.20636858  0.76896432     0.13740
C719        C  0.42722607  0.18553864  0.78810536    -0.23960
H720        H  0.48334067  0.23730514  0.84496692     0.15020
H721        H  0.53577542  0.21666292  0.65838459     0.15050
C722        C  0.58340064  0.28032970  0.70569172    -0.23900
H723        H  0.42037047  0.19273595  0.83089953     0.05270
H724        H  0.42759366  0.14483800  0.78258298     0.08490
H725        H  0.40079634  0.20267855  0.76511717     0.08490
H726        H  0.61121746  0.25522345  0.69607858     0.08480
H727        H  0.59409847  0.31122089  0.72990702     0.08480
H728        H  0.57218145  0.29773589  0.66810044     0.05250
C729        C  0.51274731  0.24921791  0.19280141    -0.20550
C730        C  0.51756719  0.30120486  0.18559585    -0.07120
C731        C  0.49201689  0.33305453  0.21712039     0.13750
C732        C  0.46724965  0.31262288  0.25968471    -0.20610
C733        C  0.46896215  0.26121241  0.27255654    -0.07120
C734        C  0.49001487  0.22887763  0.23691918     0.13740
C735        C  0.49159083  0.17364781  0.24709139    -0.23960
H736        H  0.53009887  0.22404888  0.16635518     0.15020
H737        H  0.44900424  0.33762253  0.28541642     0.15050
C738        C  0.49272800  0.38830554  0.20783387    -0.23900
H739        H  0.51177645  0.15431441  0.21633538     0.05270
H740        H  0.45856198  0.15865883  0.24629713     0.08490
H741        H  0.50556733  0.16516820  0.28633718     0.08490
H742        H  0.48169365  0.39753315  0.16727334     0.08480
H743        H  0.52599637  0.40197771  0.21171798     0.08480
H744        H  0.47110092  0.40797549  0.23685806     0.05250
C745        C  0.73901508  0.13435635  0.69143702    -0.20550
C746        C  0.78190960  0.13860418  0.70667248    -0.07120
C747        C  0.79212200  0.13093656  0.76032302     0.13750
C748        C  0.75853054  0.12346582  0.79838552    -0.20610
C749        C  0.71520381  0.12570611  0.78373093    -0.07120
C750        C  0.70537800  0.12911420  0.72962379     0.13740
C751        C  0.65923697  0.13099425  0.71261889    -0.23960
H752        H  0.73126396  0.14019798  0.65009127     0.15020
H753        H  0.76587097  0.12157081  0.84017967     0.15050
C754        C  0.83805948  0.13302776  0.77758457    -0.23900
H755        H  0.65725317  0.13344606  0.66865620     0.05270
H756        H  0.64210785  0.16390316  0.72940129     0.08490
H757        H  0.64254244  0.09692476  0.72704358     0.08490
H758        H  0.85124677  0.17047648  0.76922939     0.08480
H759        H  0.85816997  0.10519308  0.75573723     0.08480
H760        H  0.84041612  0.12479001  0.82079871     0.05090
C761        C  0.70966483  0.16253510  0.24577145    -0.20550
C762        C  0.72788383  0.17887079  0.19713743    -0.07120
C763        C  0.76793088  0.20288224  0.19579585     0.13750
C764        C  0.78768474  0.21207263  0.24402482    -0.20610
C765        C  0.76836317  0.19793004  0.29362804    -0.07120
C766        C  0.72901962  0.17125857  0.29390677     0.13740
C767        C  0.70592947  0.15155769  0.34348835    -0.23960
H768        H  0.67893481  0.14388623  0.24608352     0.15020
H769        H  0.81795957  0.23158813  0.24288405     0.15050
C770        C  0.78884947  0.22078671  0.14402280    -0.23900
H771        H  0.67821755  0.12804530  0.33435420     0.05270
H772        H  0.69210121  0.18285581  0.36666748     0.08490
H773        H  0.72813273  0.12775632  0.36693489     0.08490
H774        H  0.76689189  0.24734162  0.12358590     0.08480
H775        H  0.79601922  0.18880246  0.11799651     0.08480
H776        H  0.81966615  0.23982764  0.15025314     0.05250
C777        C  0.48188964  0.99559900  0.94215529    -0.20550
C778        C  0.46802360  0.96425121  0.98437649    -0.07120
C779        C  0.48897785  0.96465919  0.03308114     0.13750
C780        C  0.52258689  0.99789524  0.03908286    -0.20610
C781        C  0.53612275  0.02967727  0.99708214    -0.07120
C782        C  0.51543215  0.02893677  0.94819213     0.13740
C783        C  0.52764152  0.06445819  0.90326456    -0.23960
H784        H  0.46627612  0.99402432  0.90440568     0.15020
H785        H  0.53799828  0.99967629  0.07695567     0.15050
C786        C  0.47655754  0.92934877  0.07809287    -0.23900
H787        H  0.50780488  0.05922460  0.86803499     0.05270
H788        H  0.56208083  0.05855081  0.89099459     0.08490
H789        H  0.52267056  0.10323057  0.91636098     0.08490
H790        H  0.48107344  0.89052843  0.06496692     0.08480
H791        H  0.44221742  0.93571997  0.09053162     0.08480
H792        H  0.49658251  0.93433742  0.11320765     0.05250
C793        C  0.72251244  0.54947638  0.98970161    -0.20550
C794        C  0.76636126  0.54327060  0.00155526    -0.07120
C795        C  0.78279279  0.49447614  0.00927655     0.13750
C796        C  0.75609520  0.45353032  0.00191366    -0.20610
C797        C  0.71269253  0.45953863  0.98824724    -0.07120
C798        C  0.69565204  0.50833340  0.98270102     0.13740
C799        C  0.64977849  0.51710263  0.96690446    -0.23960
H800        H  0.70944637  0.58674738  0.98463467     0.15020
H801        H  0.76932884  0.41632679  0.00688233     0.15050
C802        C  0.82797396  0.48528975  0.02760018    -0.23900
H803        H  0.64237482  0.55713033  0.96117019     0.05270
H804        H  0.62722985  0.50204193  0.99829571     0.08490
H805        H  0.64437062  0.49869576  0.92877549     0.08490
H806        H  0.83312575  0.50661700  0.06396596     0.08480
H807        H  0.85186128  0.49638220  0.99587314     0.08480
H808        H  0.83373928  0.44561311  0.03777465     0.05250
C809        C  0.03738517  0.30349317  0.77061974    -0.20550
C810        C  0.02227709  0.33690933  0.80954624    -0.07120
C811        C  0.98280932  0.36307551  0.80157530     0.13750
C812        C  0.95933116  0.35379191  0.75615422    -0.20610
C813        C  0.97459415  0.32013909  0.71801281    -0.07120
C814        C  0.01431093  0.29501579  0.72502347     0.13740
C815        C  0.03200657  0.25801542  0.68541909    -0.23960
H816        H  0.06748792  0.28325391  0.77589239     0.15020
H817        H  0.92915427  0.37360583  0.74981879     0.15050
C818        C  0.96540100  0.40175782  0.83919323    -0.23900
H819        H  0.06213292  0.23970745  0.69891523     0.05270
H820        H  0.03988487  0.27674944  0.64671872     0.08490
H821        H  0.00793325  0.22878762  0.67986589     0.08490
H822        H  0.99102634  0.42832340  0.84786698     0.08480
H823        H  0.95246875  0.38364333  0.87620907     0.08480
H824        H  0.93825397  0.42341871  0.82203959     0.05250
C825        C  0.96718991  0.40135925  0.25922664    -0.20550
C826        C  0.97467303  0.38004255  0.30934081    -0.07120
C827        C  0.01625003  0.36080666  0.32047975     0.13750
C828        C  0.04785944  0.35893570  0.27957911    -0.20610
C829        C  0.03876482  0.37450666  0.22776557    -0.07120
C830        C  0.99893200  0.39895574  0.21795992     0.13740
C831        C  0.98821801  0.41877950  0.16348753    -0.23960
H832        H  0.93530739  0.41619649  0.25117173     0.15020
H833        H  0.07847283  0.34049248  0.28690121     0.15050
C834        C  0.02644545  0.33773792  0.37382769    -0.23900
H835        H  0.95583968  0.43708769  0.16352064     0.05270
H836        H  0.98815460  0.38807504  0.13490063     0.08490
H837        H  0.01235225  0.44670172  0.14992797     0.08490
H838        H  0.00531968  0.30564024  0.38240317     0.08480
H839        H  0.02156439  0.36549254  0.40540962     0.08480
H840        H  0.06040464  0.32399484  0.37498829     0.05250
C841        C  0.20063352  0.21683195  0.70823418    -0.20550
C842        C  0.24001081  0.23725265  0.72178438    -0.07120
C843        C  0.25712615  0.22419906  0.77148030     0.13750
C844        C  0.23308600  0.19392326  0.80754720    -0.20610
C845        C  0.19213208  0.17650172  0.79499703    -0.07120
C846        C  0.17705875  0.18603874  0.74358693     0.13740
C847        C  0.13458676  0.16586113  0.72730691    -0.23960
H848        H  0.18888093  0.22354328  0.66871322     0.15020
H849        H  0.24434176  0.18786528  0.84750764     0.15050
C850        C  0.30086917  0.24170888  0.78610275    -0.23900
H851        H  0.12764032  0.17635940  0.68549991     0.05270
H852        H  0.10775000  0.18037494  0.75325624     0.08490
H853        H  0.13556625  0.12478331  0.73085662     0.08490
H854        H  0.30105286  0.28284689  0.78541065     0.08480
H855        H  0.32582747  0.22776562  0.75716590     0.08480
H856        H  0.30947876  0.22824975  0.82646392     0.05250
C857        C  0.26583769  0.23142591  0.20307707    -0.20550
C858        C  0.22141779  0.24278860  0.20231541    -0.07120
C859        C  0.20537557  0.28200523  0.23499214     0.13750
C860        C  0.23214524  0.30352572  0.27158359    -0.20610
C861        C  0.27476585  0.28767419  0.27671569    -0.07120
C862        C  0.29265503  0.25353694  0.23958412     0.13740
C863        C  0.33973654  0.23851063  0.24043887    -0.23960
H864        H  0.27936942  0.20338502  0.17692944     0.15020
H865        H  0.21845047  0.32954700  0.30004719     0.15050
C866        C  0.16012621  0.30191380  0.23253856    -0.23900
H867        H  0.34884145  0.21277522  0.20792532     0.05270
H868        H  0.34718794  0.21953693  0.27861674     0.08490
H869        H  0.35995975  0.27194310  0.23527904     0.08490
H870        H  0.13711366  0.27290464  0.24622879     0.08480
H871        H  0.15447299  0.31470225  0.19115712     0.08480
H872        H  0.15440124  0.33429756  0.25845806     0.05250
C873        C  0.98549816  0.05593402  0.97512976    -0.20550
C874        C  0.01828513  0.04915594  0.01181801    -0.07120
C875        C  0.02050906  0.00420114  0.04159147     0.13750
C876        C  0.98990890  0.96716227  0.03425067    -0.20610
C877        C  0.95721908  0.97385287  0.99754115    -0.07120
C878        C  0.95525414  0.01854379  0.96725604     0.13740
C879        C  0.92148812  0.02641728  0.92628488    -0.23960
H880        H  0.98360476  0.09054057  0.95253318     0.15020
H881        H  0.99158211  0.93271829  0.05711097     0.15050
C882        C  0.05505032  0.99552742  0.08140369    -0.23900
H883        H  0.92508163  0.06264518  0.90492312     0.05270
H884        H  0.88881635  0.02526060  0.94588275     0.08490
H885        H  0.92451778  0.99683330  0.89637582     0.08490
H886        H  0.05243104  0.02432929  0.11220645     0.08480
H887        H  0.08735811  0.99737088  0.06093810     0.08480
H888        H  0.05217066  0.95864866  0.10162242     0.05250
C889        C  0.84740075  0.29327243  0.98017846    -0.20550
C890        C  0.83553209  0.24469906  0.97047957    -0.07120
C891        C  0.86654198  0.20597103  0.96850265     0.13750
C892        C  0.90803646  0.21572672  0.98370050    -0.20610
C893        C  0.91870656  0.26322110  0.99919272    -0.07120
C894        C  0.88924057  0.30328490  0.99412790     0.13740
C895        C  0.90081381  0.35588524  0.00561405    -0.23960
H896        H  0.82336619  0.32298549  0.97944001     0.15020
H897        H  0.93198733  0.18595320  0.98446716     0.15050
C898        C  0.85675189  0.15506337  0.94915150    -0.23900
H899        H  0.87301876  0.38165261  0.00026071     0.05270
H900        H  0.92707483  0.36845521  0.97758959     0.08490
H901        H  0.91118642  0.35842085  0.04720038     0.08490
H902        H  0.84054494  0.15827796  0.91061860     0.08480
H903        H  0.83615140  0.13456975  0.97861993     0.08480
H904        H  0.88671898  0.13256047  0.94287532     0.05250
C905        C  0.35250722  0.19934557  0.97780047    -0.20550
C906        C  0.32880490  0.24149808  0.99418195    -0.07120
C907        C  0.34959964  0.28001009  0.01950820     0.13750
C908        C  0.39430206  0.27686362  0.02481145    -0.20610
C909        C  0.41824784  0.23589022  0.00618359    -0.07120
C910        C  0.39734156  0.19627130  0.98316815     0.13740
C911        C  0.42252596  0.15207215  0.96234690    -0.23960
H912        H  0.33603524  0.16942716  0.95944446     0.15020
H913        H  0.41087367  0.30694779  0.04275287     0.15050
C914        C  0.32477407  0.32361465  0.04233540    -0.23900
H915        H  0.40113414  0.12466212  0.94491114     0.05270
H916        H  0.43985292  0.13334748  0.99523508     0.08490
H917        H  0.44639950  0.16428699  0.93094493     0.08490
H918        H  0.29942600  0.31028017  0.07132416     0.08480
H919        H  0.30957342  0.34564583  0.01013311     0.08480
H920        H  0.34607954  0.34868213  0.06340706     0.05250
C921        C  0.22066831  0.48893194  0.05962718    -0.20550
C922        C  0.21975235  0.46534233  0.01089619    -0.07120
C923        C  0.24441000  0.48345944  0.96635159     0.13750
C924        C  0.26759632  0.52671433  0.97132951    -0.20610
C925        C  0.26680924  0.55159646  0.01937454    -0.07120
C926        C  0.24446304  0.53173452  0.06480454     0.13740
C927        C  0.24676013  0.55365561  0.11920463    -0.23960
H928        H  0.20269332  0.47373646  0.09381862     0.15020
H929        H  0.28565213  0.54190757  0.93718475     0.15050
C930        C  0.24540284  0.45896417  0.91300152    -0.23900
H931        H  0.23291177  0.52847699  0.15069673     0.05270
H932        H  0.22781685  0.58872360  0.12124491     0.08490
H933        H  0.28090627  0.56005332  0.12858765     0.08490
H934        H  0.21211266  0.45634266  0.89861606     0.08480
H935        H  0.26043818  0.42143933  0.91634062     0.08480
H936        H  0.26471918  0.48020350  0.88249562     0.05250
loop_ 
_geom_bond_atom_site_label_1 
_geom_bond_atom_site_label_2 
_geom_bond_distance 
_geom_bond_site_symmetry_2 
_ccdc_geom_bond_type 
C1           N19   1.338   1_554  A
C1           C38   1.460       .  S
C1          C922   1.454       .  S
N2           N19   1.314       .  A
N2           N24   1.317   1_556  A
N2          Co39   2.040       .  S
C3           N28   1.332   1_655  A
C3           C41   1.453       .  S
C3           H48   1.081       .  S
H4           C45   1.081       .  S
C5           N29   1.352       .  A
C5            C9   1.469       .  S
C5           H34   1.077       .  S
Co6          N24   2.069       .  S
Co6          N14   2.062       .  S
Co6          N46   2.074   1_554  S
Co6          N22   2.048       .  S
Co6         Cl50   2.462       .  S
N7           C45   1.333       .  A
N7           N14   1.318       .  A
N7           Co8   2.075       .  S
Co8          N11   2.079       .  S
Co8          N28   2.060       .  S
Co8          N15   2.091       .  S
Co8         Cl50   2.420       .  S
C9           N47   1.347       .  A
C9          C858   1.508       .  S
N10          N17   1.317       .  A
N10          N40   1.320   1_556  A
N10         Co43   2.046   1_556  S
N11          N29   1.322       .  A
N11          N47   1.324       .  A
N12          C41   1.336       .  A
N12          N22   1.313   1_655  A
H13          C38   1.082       .  S
N14          N35   1.325       .  A
N15          N33   1.319       .  A
N15          N20   1.327       .  A
C16          N20   1.348       .  A
C16          C44   1.465   1_554  S
C16         C874   1.488       .  S
N17          C32   1.342       .  A
N17         Co39   2.094       .  S
C18          N46   1.343       .  A
C18          C21   1.468       .  S
C18          H52   1.076       .  S
C21          N42   1.350       .  A
C21         C810   1.492       .  S
N22          N28   1.321       .  A
N23          C49   1.318       .  A
N23          N25   1.316       .  A
N23         Co39   2.041       .  S
N24          C38   1.337       .  A
N25          N53   1.329       .  A
N25         Co43   2.108   1_556  S
H26          C49   1.082       .  S
H27          C44   1.081       .  S
N29         Co43   2.123       .  S
N30          N42   1.321       .  A
N30          N46   1.309       .  A
N30         Co39   2.066       .  S
C31          N35   1.348       .  A
C31          C45   1.456       .  S
C31         C829   1.472       .  S
C32          C51   1.461       .  S
C32          H36   1.081       .  S
N33          C44   1.349   1_554  A
N33         Co43   2.099       .  S
C37          N53   1.364       .  A
C37          C49   1.443       .  S
C37         C845   1.468       .  S
Co39        Cl50   2.400   1_556  S
N40          C51   1.341   1_554  A
C41         C893   1.443   1_554  S
Co43        Cl50   2.477       .  S
C51         C906   1.465       .  S
C54          N72   1.351       .  A
C54          C91   1.446   1_554  S
C54         C909   1.460       .  S
N55          N72   1.327       .  A
N55          N77   1.318   1_554  A
N55         Co92   2.112       .  S
C56          N81   1.342       .  A
C56          C94   1.459       .  S
C56         H101   1.081       .  S
H57          C98   1.078       .  S
C58          N82   1.341       .  A
C58          C62   1.462       .  S
C58          H87   1.081       .  S
Co59         N77   2.032       .  S
Co59         N67   2.112       .  S
Co59         N99   2.100   1_556  S
Co59         N75   2.127       .  S
Co59       Cl103   2.480       .  S
N60          C98   1.330       .  A
N60          N67   1.314       .  A
N60         Co61   2.042       .  S
Co61         N64   2.088       .  S
Co61         N81   2.095       .  S
Co61         N68   2.046       .  S
Co61       Cl103   2.412       .  S
C62         N100   1.346       .  A
C62         C749   1.463       .  S
N63          N70   1.317       .  A
N63          N93   1.329   1_554  A
N63         Co96   2.102   1_554  S
N64          N82   1.319       .  A
N64         N100   1.317       .  A
N65          C94   1.361       .  A
N65          N75   1.334       .  A
H66          C91   1.081       .  S
N67          N88   1.332       .  A
N68          N86   1.319       .  A
N68          N73   1.316       .  A
C69          N73   1.342       .  A
C69          C97   1.448       .  S
C69         C890   1.439       .  S
N70          C85   1.330       .  A
N70         Co92   2.045       .  S
C71          N99   1.351       .  A
C71          C74   1.478       .  S
C71         H105   1.081       .  S
C74          N95   1.333       .  A
C74         C730   1.485       .  S
N75          N81   1.322       .  A
N76         C102   1.334       .  A
N76          N78   1.314       .  A
N76         Co92   2.056       .  S
N77          C91   1.331       .  A
N78         N106   1.329       .  A
N78         Co96   2.082   1_554  S
H79         C102   1.081       .  S
H80          C97   1.079   1_554  S
N82         Co96   2.066       .  S
N83          N95   1.308       .  A
N83          N99   1.316       .  A
N83         Co92   2.065       .  S
C84          N88   1.361       .  A
C84          C98   1.446       .  S
C84         C714   1.489       .  S
C85         C104   1.442       .  S
C85          H89   1.081       .  S
N86          C97   1.328       .  A
N86         Co96   2.047       .  S
C90         N106   1.352       .  A
C90         C102   1.451       .  S
C90         C762   1.473       .  S
Co92       Cl103   2.383   1_554  S
N93         C104   1.356   1_556  A
C94         C797   1.503       .  S
Co96       Cl103   2.462       .  S
C104        C781   1.463   1_554  S
C107        N125   1.342       .  A
C107        C144   1.450   1_554  S
C107        C698   1.447       .  S
N108        N125   1.318       .  A
N108        N130   1.319       .  A
N108       Co145   2.067       .  S
C109        N134   1.332       .  A
C109        C147   1.441       .  S
C109        H154   1.081       .  S
H110        C151   1.081       .  S
C111        N135   1.347       .  A
C111        C115   1.472       .  S
C111        H140   1.081       .  S
Co112       N130   2.052   1_556  S
Co112       N120   2.108       .  S
Co112       N152   2.116   1_556  S
Co112       N128   2.098       .  S
Co112      Cl156   2.472       .  S
N113        C151   1.342       .  A
N113        N120   1.320       .  A
N113       Co114   2.079       .  S
Co114       N117   2.080       .  S
Co114       N134   2.065       .  S
Co114       N121   2.083       .  S
Co114      Cl156   2.432       .  S
C115        N153   1.349       .  A
C115        C621   1.490       .  S
N116        N123   1.317       .  A
N116        N146   1.320   1_554  A
N116       Co149   2.054   1_554  S
N117        N135   1.320       .  A
N117        N153   1.323       .  A
N118        C147   1.355       .  A
N118        N128   1.329       .  A
H119        C144   1.081       .  S
N120        N141   1.328       .  A
N121        N139   1.317       .  A
N121        N126   1.321       .  A
C122        N126   1.350       .  A
C122        C150   1.445   1_556  S
C122        C685   1.453       .  S
N123        C138   1.328       .  A
N123       Co145   2.052       .  S
C124        N152   1.352       .  A
C124        C127   1.477       .  S
C124        H158   1.081       .  S
C127        N148   1.344       .  A
C127        C666   1.491       .  S
N128        N134   1.322       .  A
N129        C155   1.339       .  A
N129        N131   1.317       .  A
N129       Co145   2.067       .  S
N130        C144   1.334   1_554  A
N131        N159   1.326       .  A
N131       Co149   2.100   1_554  S
H132        C155   1.079       .  S
H133        C150   1.077       .  S
N135       Co149   2.105       .  S
N136        N148   1.321       .  A
N136        N152   1.320       .  A
N136       Co145   2.069       .  S
C137        N141   1.352       .  A
C137        C151   1.461       .  S
C137        C650   1.486       .  S
C138        C157   1.446       .  S
C138        H142   1.078       .  S
N139        C150   1.325   1_556  A
N139       Co149   2.027       .  S
C143        N159   1.353       .  A
C143        C155   1.460       .  S
C143        C634   1.483       .  S
Co145      Cl156   2.415   1_554  S
N146        C157   1.348   1_556  A
C147        C778   1.464       .  S
Co149      Cl156   2.459       .  S
C157        C925   1.453       .  S
C160        N178   1.348       .  A
C160        C197   1.466   1_556  S
C160        C877   1.486       .  S
N161        N178   1.327       .  A
N161        N183   1.319       .  A
N161       Co198   2.098       .  S
C162        N187   1.332       .  A
C162        C200   1.457       .  S
C162        H207   1.081       .  S
H163        C204   1.082       .  S
C164        N188   1.343       .  A
C164        C168   1.467       .  S
C164        H193   1.081       .  S
Co165       N183   2.096   1_554  S
Co165       N173   2.091       .  S
Co165       N205   2.093   1_554  S
Co165       N181   2.050       .  S
Co165      Cl209   2.461   1_554  S
N166        C204   1.336       .  A
N166        N173   1.322       .  A
N166       Co167   2.082       .  S
Co167       N170   2.082       .  S
Co167       N187   2.063       .  S
Co167       N174   2.105       .  S
Co167      Cl209   2.435   1_554  S
C168        N206   1.353       .  A
C168        C570   1.499       .  S
N169        N176   1.320       .  A
N169        N199   1.320       .  A
N169       Co202   2.074       .  S
N170        N188   1.317       .  A
N170        N206   1.326       .  A
N171        C200   1.340       .  A
N171        N181   1.316       .  A
H172        C197   1.081       .  S
N173        N194   1.327       .  A
N174        N192   1.320       .  A
N174        N179   1.330       .  A
C175        N179   1.353       .  A
C175        C203   1.471   1_554  S
C175        C794   1.502       .  S
N176        C191   1.331       .  A
N176       Co198   2.052       .  S
C177        N205   1.343       .  A
C177        C180   1.460       .  S
C177        H211   1.080       .  S
C180        N201   1.350       .  A
C180        C586   1.479       .  S
N181        N187   1.319       .  A
N182        C208   1.338       .  A
N182        N184   1.320       .  A
N182       Co198   2.085       .  S
N183        C197   1.348   1_556  A
N184        N212   1.326       .  A
N184       Co202   2.093       .  S
H185        C208   1.082       .  S
H186        C203   1.081       .  S
N188       Co202   2.095   1_554  S
N189        N201   1.324       .  A
N189        N205   1.318       .  A
N189       Co198   2.072       .  S
C190        N194   1.354       .  A
C190        C204   1.457       .  S
C190        C602   1.479       .  S
C191        C210   1.447   1_655  S
C191        H195   1.079   1_655  S
N192        C203   1.348   1_554  A
N192       Co202   2.107   1_554  S
C196        N212   1.354       .  A
C196        C208   1.461       .  S
C196        C557   1.481       .  S
Co198      Cl209   2.438       .  S
N199        C210   1.346   1_655  A
C200        C682   1.455       .  S
Co202      Cl209   2.461       .  S
C210        C701   1.452       .  S
C213        N231   1.358       .  A
C213        C250   1.473       .  S
C213        C538   1.532       .  S
N214        N231   1.337       .  A
N214        N236   1.317       .  A
N214       Co251   2.113       .  S
C215        N240   1.319       .  A
C215        C253   1.430       .  S
C215        H260   1.082       .  S
H216        C257   1.081       .  S
C217        N241   1.340       .  A
C217        C221   1.455       .  S
C217        H246   1.081       .  S
Co218       N236   2.139       .  S
Co218       N226   2.012       .  S
Co218       N258   2.068       .  S
Co218       N234   2.138       .  S
Co218      Cl262   2.437       .  S
N219        C257   1.359       .  A
N219        N226   1.319       .  A
N219       Co220   2.133       .  S
Co220       N223   2.103       .  S
Co220       N240   2.027       .  S
Co220       N227   2.143       .  S
Co220      Cl262   2.458       .  S
C221        N259   1.354       .  A
C221        C509   1.481       .  S
N222        N229   1.319       .  A
N222        N252   1.336       .  A
N222       Co255   2.145       .  S
N223        N241   1.321       .  A
N223        N259   1.330       .  A
N224        C253   1.364       .  A
N224        N234   1.338       .  A
H225        C250   1.077       .  S
N226        N247   1.305       .  A
N227        N245   1.319       .  A
N227        N232   1.341       .  A
C228        N232   1.364       .  A
C228        C256   1.478       .  S
C228        C525   1.542       .  S
N229        C244   1.322       .  A
N229       Co251   2.019       .  S
C230        N258   1.338       .  A
C230        C233   1.452       .  S
C230        H264   1.081       .  S
C233        N254   1.351       .  A
C233        C490   1.469       .  S
N234        N240   1.321       .  A
N235        C261   1.351       .  A
N235        N237   1.321       .  A
N235       Co251   2.114       .  S
N236        C250   1.359       .  A
N237        N265   1.309       .  A
N237       Co255   2.032       .  S
H238        C261   1.080       .  S
H239        C256   1.080       .  S
N241       Co255   2.084       .  S
N242        N254   1.327       .  A
N242        N258   1.318       .  A
N242       Co251   2.089       .  S
C243        N247   1.323       .  A
C243        C257   1.486       .  S
C243        C842   1.466       .  S
C244        C263   1.431       .  S
C244        H248   1.082       .  S
N245        C256   1.360       .  A
N245       Co255   2.137       .  S
C249        N265   1.333       .  A
C249        C261   1.478       .  S
C249        C733   1.479       .  S
Co251      Cl262   2.450       .  S
N252        C263   1.365       .  A
C253        C717   1.471       .  S
Co255      Cl262   2.440       .  S
C263        C861   1.476       .  S
C266        N284   1.360       .  A
C266        C303   1.463       .  S
C266        C765   1.498       .  S
N267        N284   1.328       .  A
N267        N289   1.318       .  A
N267       Co304   2.104       .  S
C268        N293   1.337       .  A
C268        C306   1.465       .  S
C268        H313   1.082       .  S
H269        C310   1.082       .  S
C270        N294   1.348       .  A
C270        C274   1.471       .  S
C270        H299   1.081       .  S
Co271       N289   2.063       .  S
Co271       N279   2.141       .  S
Co271       N311   2.115       .  S
Co271       N287   2.065       .  S
Co271      Cl315   2.455       .  S
N272        C310   1.361       .  A
N272        N279   1.322       .  A
N272       Co273   2.159       .  S
Co273       N276   2.051       .  S
Co273       N293   2.076       .  S
Co273       N280   2.109       .  S
Co273      Cl315   2.458       .  S
C274        N312   1.338       .  A
C274        C477   1.466       .  S
N275        N282   1.317       .  A
N275        N305   1.323       .  A
N275       Co308   2.077       .  S
N276        N294   1.323       .  A
N276        N312   1.316       .  A
N277        C306   1.349       .  A
N277        N287   1.320       .  A
H278        C303   1.073       .  S
N279        N300   1.339       .  A
N280        N298   1.323       .  A
N280        N285   1.328       .  A
C281        N285   1.354       .  A
C281        C309   1.451       .  S
C281        C813   1.474       .  S
N282        C297   1.336       .  A
N282       Co304   2.075       .  S
C283        N311   1.350       .  A
C283        C286   1.468       .  S
C283        H317   1.081       .  S
C286        N307   1.338       .  A
C286        C458   1.469       .  S
N287        N293   1.316       .  A
N288        C314   1.346   1_655  A
N288        N290   1.317       .  A
N288       Co304   2.120       .  S
N289        C303   1.330       .  A
N290        N318   1.342   1_655  A
N290       Co308   2.156       .  S
H291        C314   1.075       .  S
H292        C309   1.081       .  S
N294       Co308   2.121       .  S
N295        N307   1.318       .  A
N295        N311   1.321       .  A
N295       Co304   2.050       .  S
C296        N300   1.364       .  A
C296        C310   1.484       .  S
C296        C522   1.544       .  S
C297        C316   1.463       .  S
C297        H301   1.082       .  S
N298        C309   1.335       .  A
N298       Co308   2.066       .  S
C302        N318   1.374       .  A
C302        C314   1.480       .  S
C302        C541   1.552       .  S
Co304      Cl315   2.452       .  S
N305        C316   1.350       .  A
C306        C746   1.468       .  S
Co308      Cl315   2.461       .  S
C316        C826   1.471       .  S
C319        N337   1.354       .  A
C319        C356   1.463       .  S
C319        C573   1.497       .  S
N320        N337   1.328       .  A
N320        N342   1.318       .  A
N320       Co357   2.085       .  S
C321        N346   1.335       .  A
C321        C359   1.456       .  S
C321        H366   1.082       .  S
H322        C363   1.081       .  S
C323        N347   1.348       .  A
C323        C327   1.468       .  S
C323        H352   1.081       .  S
Co324       N342   2.096       .  S
Co324       N332   2.042       .  S
Co324       N364   2.077       .  S
Co324       N340   2.099       .  S
Co324      Cl368   2.462       .  S
N325        C363   1.340   1_455  A
N325        N332   1.320       .  A
N325       Co326   2.081       .  S
Co326       N329   2.075       .  S
Co326       N346   2.072       .  S
Co326       N333   2.089       .  S
Co326      Cl368   2.431       .  S
C327        N365   1.342       .  A
C327        C461   1.475       .  S
N328        N335   1.323       .  A
N328        N358   1.330       .  A
N328       Co361   2.105       .  S
N329        N347   1.321       .  A
N329        N365   1.320       .  A
N330        C359   1.356       .  A
N330        N340   1.328       .  A
H331        C356   1.080       .  S
N332        N353   1.315   1_455  A
N333        N351   1.319       .  A
N333        N338   1.328       .  A
C334        N338   1.353       .  A
C334        C362   1.457       .  S
C334        C653   1.481       .  S
N335        C350   1.340       .  A
N335       Co357   2.090       .  S
C336        N364   1.344       .  A
C336        C339   1.464       .  S
C336        H370   1.080       .  S
C339        N360   1.353       .  A
C339        C506   1.489       .  S
N340        N346   1.319       .  A
N341        C367   1.331       .  A
N341        N343   1.319       .  A
N341       Co357   2.060       .  S
N342        C356   1.341       .  A
N343        N371   1.318       .  A
N343       Co361   2.064       .  S
H344        C367   1.081       .  S
H345        C362   1.080       .  S
N347       Co361   2.099       .  S
N348        N360   1.327       .  A
N348        N364   1.319       .  A
N348       Co357   2.108       .  S
C349        N353   1.336       .  A
C349        C363   1.455       .  S
C349        C429   1.441       .  S
C350        C369   1.459       .  S
C350        H354   1.082       .  S
N351        C362   1.342       .  A
N351       Co361   2.095       .  S
C355        N371   1.345       .  A
C355        C367   1.457       .  S
C355        C442   1.466       .  S
Co357      Cl368   2.437       .  S
N358        C369   1.356       .  A
C359        C554   1.480       .  S
Co361      Cl368   2.468       .  S
C369        C669   1.494       .  S
C372        N390   1.349       .  A
C372        C409   1.471       .  S
C372        C637   1.497       .  S
N373        N390   1.322       .  A
N373        N395   1.318       .  A
N373       Co410   2.063       .  S
C374        N399   1.336       .  A
C374        C412   1.455       .  S
C374        H419   1.082       .  S
H375        C416   1.081       .  S
C376        N400   1.341       .  A
C376        C380   1.457       .  S
C376        H405   1.081       .  S
Co377       N395   2.111       .  S
Co377       N385   2.053       .  S
Co377       N417   2.096       .  S
Co377       N393   2.110       .  S
Co377      Cl421   2.452       .  S
N378        C416   1.334       .  A
N378        N385   1.318       .  A
N378       Co379   2.065       .  S
Co379       N382   2.089       .  S
Co379       N399   2.078       .  S
Co379       N386   2.085       .  S
Co379      Cl421   2.437       .  S
C380        N418   1.349       .  A
C380        C493   1.472       .  S
N381        N388   1.318       .  A
N381        N411   1.324       .  A
N381       Co414   2.078       .  S
N382        N400   1.319       .  A
N382        N418   1.324       .  A
N383        C412   1.357       .  A
N383        N393   1.330       .  A
H384        C409   1.080       .  S
N385        N406   1.315       .  A
N386        N404   1.314       .  A
N386        N391   1.327       .  A
C387        N391   1.358       .  A
C387        C415   1.468       .  S
C387        C589   1.501       .  S
N388        C403   1.338       .  A
N388       Co410   2.076       .  S
C389        N417   1.347       .  A
C389        C392   1.470       .  S
C389        H423   1.081       .  S
C392        N413   1.338       .  A
C392        C474   1.467       .  S
N393        N399   1.323       .  A
N394        C420   1.338       .  A
N394        N396   1.320       .  A
N394       Co410   2.066       .  S
N395        C409   1.345       .  A
N396        N424   1.316       .  A
N396       Co414   2.056       .  S
H397        C420   1.081       .  S
H398        C415   1.074       .  S
N400       Co414   2.070       .  S
N401        N413   1.317       .  A
N401        N417   1.319       .  A
N401       Co410   2.060       .  S
C402        N406   1.343       .  A
C402        C416   1.458       .  S
C402        C445   1.464       .  S
C403        C422   1.461       .  S
C403        H407   1.082       .  S
N404        C415   1.336       .  A
N404       Co414   2.077       .  S
C408        N424   1.340       .  A
C408        C420   1.448       .  S
C408        C426   1.439       .  S
Co410      Cl421   2.445       .  S
N411        C422   1.350       .  A
C412        C618   1.491       .  S
Co414      Cl421   2.445       .  S
C422        C605   1.481       .  S
C425        H432   1.085       .  S
C425        C426   1.397       .  A
C425        C430   1.393       .  A
C426        C427   1.406       .  A
C427        C428   1.393       .  A
C427        C434   1.507       .  S
C428        H433   1.085       .  S
C428        C429   1.398       .  A
C429        C430   1.407       .  A
C430        C431   1.506       .  S
C431        H435   1.111       .  S
C431        H436   1.109       .  S
C431        H437   1.106       .  S
C434        H438   1.111       .  S
C434        H439   1.110       .  S
C434        H440   1.111       .  S
C441        H448   1.082       .  S
C441        C442   1.401       .  A
C441        C446   1.391       .  A
C442        C443   1.414       .  A
C443        C444   1.394       .  A
C443        C450   1.509       .  S
C444        H449   1.081       .  S
C444        C445   1.401       .  A
C445        C446   1.415       .  A
C446        C447   1.510       .  S
C447        H451   1.109       .  S
C447        H452   1.110       .  S
C447        H453   1.109       .  S
C450        H454   1.109       .  S
C450        H455   1.110       .  S
C450        H456   1.111       .  S
C457        H464   1.084   1_545  S
C457        C458   1.398       .  A
C457        C462   1.403   1_545  A
C458        C459   1.417       .  A
C459        C460   1.404   1_655  A
C459        C466   1.509   1_655  S
C460        H465   1.085       .  S
C460        C461   1.400   1_545  A
C461        C462   1.414   1_455  A
C462        C463   1.504       .  S
C463        H467   1.111       .  S
C463        H468   1.108       .  S
C463        H469   1.110       .  S
C466        H470   1.110       .  S
C466        H471   1.108       .  S
C466        H472   1.108   1_455  S
C473        H480   1.084       .  S
C473        C474   1.403       .  A
C473        C478   1.403       .  A
C474        C475   1.410       .  A
C475        C476   1.402       .  A
C475        C482   1.507       .  S
C476        H481   1.084       .  S
C476        C477   1.403       .  A
C477        C478   1.411       .  A
C478        C479   1.507       .  S
C479        H483   1.111       .  S
C479        H484   1.111       .  S
C479        H485   1.110       .  S
C482        H486   1.109       .  S
C482        H487   1.111       .  S
C482        H488   1.111       .  S
C489        H496   1.085       .  S
C489        C490   1.399   1_565  A
C489        C494   1.402       .  A
C490        C491   1.411       .  A
C491        C492   1.404   1_545  A
C491        C498   1.507       .  S
C492        H497   1.084   1_565  S
C492        C493   1.402       .  A
C493        C494   1.416       .  A
C494        C495   1.508       .  S
C495        H499   1.110       .  S
C495        H500   1.109       .  S
C495        H501   1.107       .  S
C498        H502   1.110       .  S
C498        H503   1.110       .  S
C498        H504   1.111       .  S
C505        H512   1.084       .  S
C505        C506   1.405       .  A
C505        C510   1.408       .  A
C506        C507   1.418       .  A
C507        C508   1.410       .  A
C507        C514   1.506       .  S
C508        H513   1.084       .  S
C508        C509   1.402       .  A
C509        C510   1.410       .  A
C510        C511   1.505       .  S
C511        H515   1.109       .  S
C511        H516   1.110       .  S
C511        H517   1.110       .  S
C514        H518   1.110       .  S
C514        H519   1.108       .  S
C514        H520   1.111       .  S
C521        H528   1.083       .  S
C521        C522   1.415       .  A
C521        C526   1.433       .  A
C522        C523   1.426       .  A
C523        C524   1.432       .  A
C523        C530   1.505       .  S
C524        H529   1.083       .  S
C524        C525   1.413       .  A
C525        C526   1.424       .  A
C526        C527   1.505       .  S
C527        H531   1.111       .  S
C527        H532   1.111       .  S
C527        H533   1.110       .  S
C530        H534   1.111       .  S
C530        H535   1.110       .  S
C530        H536   1.111       .  S
C537        H544   1.084       .  S
C537        C538   1.403       .  A
C537        C542   1.426       .  A
C538        C539   1.423       .  A
C539        C540   1.430       .  A
C539        C546   1.505       .  S
C540        H545   1.083       .  S
C540        C541   1.417       .  A
C541        C542   1.438       .  A
C542        C543   1.504       .  S
C543        H547   1.111       .  S
C543        H548   1.107       .  S
C543        H549   1.110       .  S
C546        H550   1.110       .  S
C546        H551   1.104       .  S
C546        H552   1.111       .  S
C553        H560   1.084       .  S
C553        C554   1.406   1_655  A
C553        C558   1.407       .  A
C554        C555   1.410       .  A
C555        C556   1.406   1_455  A
C555        C562   1.507       .  S
C556        H561   1.084       .  S
C556        C557   1.406       .  A
C557        C558   1.411       .  A
C558        C559   1.506       .  S
C559        H563   1.111       .  S
C559        H564   1.110       .  S
C559        H565   1.110       .  S
C562        H566   1.110       .  S
C562        H567   1.110       .  S
C562        H568   1.111       .  S
C569        H576   1.082       .  S
C569        C570   1.408   1_455  A
C569        C574   1.409       .  A
C570        C571   1.419       .  A
C571        C572   1.407       .  A
C571        C578   1.508       .  S
C572        H577   1.081       .  S
C572        C573   1.406   1_655  A
C573        C574   1.416       .  A
C574        C575   1.507       .  S
C575        H579   1.111       .  S
C575        H580   1.110       .  S
C575        H581   1.110       .  S
C578        H582   1.110       .  S
C578        H583   1.110       .  S
C578        H584   1.111       .  S
C585        H592   1.085       .  S
C585        C586   1.396       .  A
C585        C590   1.404       .  A
C586        C587   1.413       .  A
C587        C588   1.407       .  A
C587        C594   1.508       .  S
C588        H593   1.083       .  S
C588        C589   1.410       .  A
C589        C590   1.426       .  A
C590        C591   1.505       .  S
C591        H595   1.111       .  S
C591        H596   1.110       .  S
C591        H597   1.109       .  S
C594        H598   1.108       .  S
C594        H599   1.111       .  S
C594        H600   1.111       .  S
C601        H608   1.084       .  S
C601        C602   1.399       .  A
C601        C606   1.406       .  A
C602        C603   1.418       .  A
C603        C604   1.403       .  A
C603        C610   1.505       .  S
C604        H609   1.085       .  S
C604        C605   1.399       .  A
C605        C606   1.421       .  A
C606        C607   1.508       .  S
C607        H611   1.111       .  S
C607        H612   1.110       .  S
C607        H613   1.110       .  S
C610        H614   1.107       .  S
C610        H615   1.109       .  S
C610        H616   1.111       .  S
C617        H624   1.085       .  S
C617        C618   1.402       .  A
C617        C622   1.407       .  A
C618        C619   1.420       .  A
C619        C620   1.412       .  A
C619        C626   1.506       .  S
C620        H625   1.084       .  S
C620        C621   1.403       .  A
C621        C622   1.417       .  A
C622        C623   1.506       .  S
C623        H627   1.110       .  S
C623        H628   1.109       .  S
C623        H629   1.110       .  S
C626        H630   1.110       .  S
C626        H631   1.110       .  S
C626        H632   1.111       .  S
C633        H640   1.084       .  S
C633        C634   1.400       .  A
C633        C638   1.405       .  A
C634        C635   1.414       .  A
C635        C636   1.406       .  A
C635        C642   1.508       .  S
C636        H641   1.081       .  S
C636        C637   1.407       .  A
C637        C638   1.423       .  A
C638        C639   1.509       .  S
C639        H643   1.111       .  S
C639        H644   1.110       .  S
C639        H645   1.110       .  S
C642        H646   1.111       .  S
C642        H647   1.106       .  S
C642        H648   1.111       .  S
C649        H656   1.084       .  S
C649        C650   1.404       .  A
C649        C654   1.409       .  A
C650        C651   1.417       .  A
C651        C652   1.408       .  A
C651        C658   1.507       .  S
C652        H657   1.084       .  S
C652        C653   1.401       .  A
C653        C654   1.412       .  A
C654        C655   1.506       .  S
C655        H659   1.111       .  S
C655        H660   1.110       .  S
C655        H661   1.110       .  S
C658        H662   1.110       .  S
C658        H663   1.108       .  S
C658        H664   1.111       .  S
C665        H672   1.084       .  S
C665        C666   1.404       .  A
C665        C670   1.414       .  A
C666        C667   1.418       .  A
C667        C668   1.408       .  A
C667        C674   1.507       .  S
C668        H673   1.084       .  S
C668        C669   1.403       .  A
C669        C670   1.420       .  A
C670        C671   1.506       .  S
C671        H675   1.111       .  S
C671        H676   1.110       .  S
C671        H677   1.110       .  S
C674        H678   1.107       .  S
C674        H679   1.110       .  S
C674        H680   1.111       .  S
C681        H688   1.084       .  S
C681        C682   1.396       .  A
C681        C686   1.388   1_554  A
C682        C683   1.414   1_554  A
C683        C684   1.394       .  A
C683        C690   1.508   1_556  S
C684        H689   1.085       .  S
C684        C685   1.399       .  A
C685        C686   1.414       .  A
C686        C687   1.507       .  S
C687        H691   1.108       .  S
C687        H692   1.107       .  S
C687        H693   1.107   1_556  S
C690        H694   1.109   1_554  S
C690        H695   1.109       .  S
C690        H696   1.111   1_554  S
C697        H704   1.085       .  S
C697        C698   1.397       .  A
C697        C702   1.393       .  A
C698        C699   1.408   1_554  A
C699        C700   1.393       .  A
C699        C706   1.508       .  S
C700        H705   1.085       .  S
C700        C701   1.399       .  A
C701        C702   1.413   1_556  A
C702        C703   1.509       .  S
C703        H707   1.111       .  S
C703        H708   1.110       .  S
C703        H709   1.106   1_554  S
C706        H710   1.109   1_556  S
C706        H711   1.110       .  S
C706        H712   1.111       .  S
C713        H720   1.083       .  S
C713        C714   1.408       .  A
C713        C718   1.412       .  A
C714        C715   1.420       .  A
C715        C716   1.400       .  A
C715        C722   1.511       .  S
C716        H721   1.085       .  S
C716        C717   1.402       .  A
C717        C718   1.413       .  A
C718        C719   1.504       .  S
C719        H723   1.111       .  S
C719        H724   1.110       .  S
C719        H725   1.109       .  S
C722        H726   1.110       .  S
C722        H727   1.107       .  S
C722        H728   1.111       .  S
C729        H736   1.084       .  S
C729        C730   1.420       .  A
C729        C734   1.399       .  A
C730        C731   1.399       .  A
C731        C732   1.402       .  A
C731        C738   1.504       .  S
C732        H737   1.083       .  S
C732        C733   1.418       .  A
C733        C734   1.402       .  A
C734        C735   1.507       .  S
C735        H739   1.111       .  S
C735        H740   1.109       .  S
C735        H741   1.111       .  S
C738        H742   1.110       .  S
C738        H743   1.110       .  S
C738        H744   1.111       .  S
C745        H752   1.084       .  S
C745        C746   1.405       .  A
C745        C750   1.398       .  A
C746        C747   1.408       .  A
C747        C748   1.402       .  A
C747        C754   1.507       .  S
C748        H753   1.084       .  S
C748        C749   1.406       .  A
C749        C750   1.407       .  A
C750        C751   1.508       .  S
C751        H755   1.111       .  S
C751        H756   1.110       .  S
C751        H757   1.110       .  S
C754        H758   1.109       .  S
C754        H759   1.110       .  S
C754        H760   1.110       .  S
C761        H768   1.085       .  S
C761        C762   1.394       .  A
C761        C766   1.398       .  A
C762        C763   1.409       .  A
C763        C764   1.409       .  A
C763        C770   1.507       .  S
C764        H769   1.083       .  S
C764        C765   1.412       .  A
C765        C766   1.427       .  A
C766        C767   1.506       .  S
C767        H771   1.111       .  S
C767        H772   1.109       .  S
C767        H773   1.110       .  S
C770        H774   1.110       .  S
C770        H775   1.110       .  S
C770        H776   1.111       .  S
C777        H784   1.084       .  S
C777        C778   1.402       .  A
C777        C782   1.402   1_565  A
C778        C779   1.409   1_556  A
C779        C780   1.401       .  A
C779        C786   1.506       .  S
C780        H785   1.084       .  S
C780        C781   1.402   1_564  A
C781        C782   1.409       .  A
C782        C783   1.507       .  S
C783        H787   1.111       .  S
C783        H788   1.110       .  S
C783        H789   1.111       .  S
C786        H790   1.111       .  S
C786        H791   1.110       .  S
C786        H792   1.111       .  S
C793        H800   1.084       .  S
C793        C794   1.409   1_556  A
C793        C798   1.418       .  A
C794        C795   1.415       .  A
C795        C796   1.412       .  A
C795        C802   1.506       .  S
C796        H801   1.084       .  S
C796        C797   1.407   1_554  A
C797        C798   1.416       .  A
C798        C799   1.504       .  S
C799        H803   1.108       .  S
C799        H804   1.110       .  S
C799        H805   1.110       .  S
C802        H806   1.111       .  S
C802        H807   1.108   1_554  S
C802        H808   1.108       .  S
C809        H816   1.084       .  S
C809        C810   1.409       .  A
C809        C814   1.400       .  A
C810        C811   1.420   1_455  A
C811        C812   1.408       .  A
C811        C818   1.505       .  S
C812        H817   1.084       .  S
C812        C813   1.401       .  A
C813        C814   1.410   1_655  A
C814        C815   1.509       .  S
C815        H819   1.110       .  S
C815        H820   1.108       .  S
C815        H821   1.110       .  S
C818        H822   1.110       .  S
C818        H823   1.107       .  S
C818        H824   1.111       .  S
C825        H832   1.084       .  S
C825        C826   1.399       .  A
C825        C830   1.405       .  A
C826        C827   1.416   1_655  A
C827        C828   1.395       .  A
C827        C834   1.509       .  S
C828        H833   1.084       .  S
C828        C829   1.398       .  A
C829        C830   1.417   1_455  A
C830        C831   1.506       .  S
C831        H835   1.111       .  S
C831        H836   1.110       .  S
C831        H837   1.110   1_655  S
C834        H838   1.107       .  S
C834        H839   1.109       .  S
C834        H840   1.111       .  S
C841        H848   1.082       .  S
C841        C842   1.405       .  A
C841        C846   1.398       .  A
C842        C843   1.411       .  A
C843        C844   1.408       .  A
C843        C850   1.505       .  S
C844        H849   1.085       .  S
C844        C845   1.411       .  A
C845        C846   1.409       .  A
C846        C847   1.508       .  S
C847        H851   1.111       .  S
C847        H852   1.110       .  S
C847        H853   1.110       .  S
C850        H854   1.110       .  S
C850        H855   1.109       .  S
C850        H856   1.111       .  S
C857        H864   1.083       .  S
C857        C858   1.406       .  A
C857        C862   1.411       .  A
C858        C859   1.427       .  A
C859        C860   1.405       .  A
C859        C866   1.496       .  S
C860        H865   1.085       .  S
C860        C861   1.391       .  A
C861        C862   1.419       .  A
C862        C863   1.509       .  S
C863        H867   1.111       .  S
C863        H868   1.108       .  S
C863        H869   1.110       .  S
C866        H870   1.109       .  S
C866        H871   1.109       .  S
C866        H872   1.111       .  S
C873        H880   1.084       .  S
C873        C874   1.405   1_656  A
C873        C878   1.412       .  A
C874        C875   1.413       .  A
C875        C876   1.410   1_445  A
C875        C882   1.505   1_545  S
C876        H881   1.083       .  S
C876        C877   1.403   1_554  A
C877        C878   1.413   1_565  A
C878        C879   1.506       .  S
C879        H883   1.110       .  S
C879        H884   1.110       .  S
C879        H885   1.110   1_545  S
C882        H886   1.110   1_565  S
C882        H887   1.110       .  S
C882        H888   1.111       .  S
C889        H896   1.085       .  S
C889        C890   1.397       .  A
C889        C894   1.389       .  A
C890        C891   1.408       .  A
C891        C892   1.387       .  A
C891        C898   1.508       .  S
C892        H897   1.085       .  S
C892        C893   1.397       .  A
C893        C894   1.410       .  A
C894        C895   1.507   1_556  S
C895        H899   1.108       .  S
C895        H900   1.109   1_554  S
C895        H901   1.110       .  S
C898        H902   1.110       .  S
C898        H903   1.105       .  S
C898        H904   1.109       .  S
C905        H912   1.084       .  S
C905        C906   1.405       .  A
C905        C910   1.402       .  A
C906        C907   1.410   1_556  A
C907        C908   1.398       .  A
C907        C914   1.508       .  S
C908        H913   1.085       .  S
C908        C909   1.401       .  A
C909        C910   1.407   1_554  A
C910        C911   1.508       .  S
C911        H915   1.111       .  S
C911        H916   1.110       .  S
C911        H917   1.111       .  S
C914        H918   1.111       .  S
C914        H919   1.108       .  S
C914        H920   1.111       .  S
C921        H928   1.084       .  S
C921        C922   1.396       .  A
C921        C926   1.393       .  A
C922        C923   1.415   1_554  A
C923        C924   1.392       .  A
C923        C930   1.509       .  S
C924        H929   1.084       .  S
C924        C925   1.396   1_556  A
C925        C926   1.414       .  A
C926        C927   1.509       .  S
C927        H931   1.111       .  S
C927        H932   1.106       .  S
C927        H933   1.111       .  S
C930        H934   1.110       .  S
C930        H935   1.110       .  S
C930        H936   1.111       .  S
