geometry optimzed in LAMMPS
_audit_creation_date              2020-11-30 
_audit_creation_method            'lammps2cif' 
_symmetry_space_group_name_H-M    'P1' 
_symmetry_Int_Tables_number       1 
_symmetry_cell_setting            triclinic 
loop_ 
_symmetry_equiv_pos_as_xyz 
  x,y,z 
_cell_length_a                    50.95560847887449 
_cell_length_b                    35.14490890989689 
_cell_length_c                    40.78380131210505 
_cell_angle_alpha                 90.08826159209387 
_cell_angle_beta                  115.67871439092697 
_cell_angle_gamma                 89.78976314291756 
loop_ 
_atom_site_label 
_atom_site_type_symbol 
_atom_site_fract_x 
_atom_site_fract_y 
_atom_site_fract_z 
_atom_site_charge 
In1        In  0.12452163  0.19411996  0.37394636     1.36870
C2          C  0.10594778  0.24950268  0.32652271     0.77780
O3          O  0.11744991  0.23985317  0.40615096    -0.60660
O4          O  0.16122461  0.22828825  0.41536120    -0.51570
C5          C  0.10927624  0.14491523  0.41129512     0.70450
O6          O  0.09059072  0.16278292  0.38417256    -0.46430
C7          C  0.14014713  0.14386253  0.33802109     0.75150
O8          O  0.08827013  0.23025698  0.33420909    -0.58290
O9          O  0.15873397  0.16396902  0.36318305    -0.48380
O10         O  0.13153613  0.23632561  0.33890493    -0.54720
C11         C  0.14376442  0.24996109  0.42144034     0.85330
O12         O  0.13549737  0.15312701  0.41914970    -0.56620
O13         O  0.11379157  0.15009598  0.33112121    -0.59910
In14       In  0.17763072  0.98417238  0.20945085     1.36870
C15         C  0.17601482  0.90915308  0.20254421     0.77780
O16         O  0.13100780  0.99093657  0.16946384    -0.60660
O17         O  0.16361378  0.00248867  0.15139659    -0.51570
C18         C  0.16634609  0.03521682  0.24966292     0.70450
O19         O  0.15895653  0.00063418  0.24810589    -0.46430
C20         C  0.23484146  0.98531106  0.24187301     0.75150
O21         O  0.16682546  0.92584081  0.22314822    -0.58290
O22         O  0.22045940  0.00208192  0.21184261    -0.48380
O23         O  0.18496224  0.93120539  0.18528626    -0.54720
C24         C  0.13680734  0.99915716  0.14327402     0.85330
O25         O  0.17978203  0.04309695  0.23082595    -0.56620
O26         O  0.21989044  0.96970976  0.25591562    -0.59910
In27       In  0.07303453  0.98496830  0.03993641     1.36870
C28         C  0.07693466  0.91079326  0.05076832     0.77780
O29         O  0.11980248  0.99128335  0.07940876    -0.60660
O30         O  0.08747078  0.00419121  0.09775787    -0.51570
C31         C  0.08455891  0.03480395  0.99950850     0.70450
O32         O  0.09280671  0.00044435  0.00227253    -0.46430
C33         C  0.01573135  0.98559367  0.00884350     0.75150
O34         O  0.08233410  0.92563099  0.02602870    -0.58290
O35         O  0.03040462  0.00368685  0.03795360    -0.48380
O36         O  0.06933969  0.93388910  0.06869058    -0.54720
C37         C  0.11420301  0.99974201  0.10574609     0.85330
O38         O  0.07000935  0.04329988  0.01689887    -0.56620
O39         O  0.03040773  0.96871776  0.49498755    -0.59910
In40       In  0.37376868  0.77255486  0.12522093     1.36870
C41         C  0.34084027  0.71741051  0.08438906     0.77780
O42         O  0.36281017  0.81357960  0.07964056    -0.60660
O43         O  0.40748577  0.80443449  0.11473202    -0.51570
C44         C  0.36078418  0.82234518  0.16452140     0.70450
O45         O  0.34212216  0.81084361  0.13391659    -0.46430
C46         C  0.40555544  0.71603104  0.16532359     0.75150
O47         O  0.33483408  0.73446791  0.10758722    -0.58290
O48         O  0.41242365  0.73377497  0.14325411    -0.48380
O49         O  0.36031803  0.73293850  0.07790520    -0.54720
C50         C  0.38892485  0.82215948  0.08757691     0.85330
O51         O  0.38580095  0.80768628  0.17529209    -0.56620
O52         O  0.38547701  0.73139929  0.17093660    -0.59910
In53       In  0.32391731  0.98416828  0.29143364     1.36870
C54         C  0.32875714  0.05854784  0.30197021     0.77780
O55         O  0.28159615  0.99930844  0.24522077    -0.60660
O56         O  0.28096157  0.96678417  0.28908288    -0.51570
C57         C  0.33478943  0.93241282  0.25163751     0.70450
O58         O  0.33736389  0.96775404  0.24773942    -0.46430
C59         C  0.36438022  0.96954890  0.35754975     0.75150
O60         O  0.33804118  0.04214681  0.28128666    -0.58290
O61         O  0.33755148  0.96552861  0.34907445    -0.48380
O62         O  0.31702805  0.03675781  0.31617140    -0.54720
C63         C  0.26660382  0.98371400  0.25917643     0.85330
O64         O  0.32655682  0.92402171  0.27577546    -0.56620
O65         O  0.37046792  0.97812388  0.33161747    -0.59910
In66       In  0.42659201  0.98422195  0.46164442     1.36870
C67         C  0.42216080  0.05913389  0.45337733     0.77780
O68         O  0.46930230  0.00050890  0.00645386    -0.60660
O69         O  0.46924400  0.96617336  0.46313018    -0.51570
C70         C  0.41455835  0.93334503  0.00095503     0.70450
O71         O  0.40516841  0.96720436  0.99720150    -0.46430
C72         C  0.38658539  0.96927600  0.39524583     0.75150
O73         O  0.41820130  0.04267497  0.47848046    -0.58290
O74         O  0.41349722  0.96616134  0.40378679    -0.48380
O75         O  0.42791065  0.03690000  0.43312182    -0.54720
C76         C  0.48395088  0.98402351  0.49236128     0.85330
O77         O  0.43051620  0.92588224  0.48519844    -0.56620
O78         O  0.38030051  0.97660077  0.42125794    -0.59910
In79       In  0.37383531  0.27401166  0.37526739     1.36870
C80         C  0.40570248  0.21797573  0.41628567     0.77780
O81         O  0.38418887  0.31263193  0.42268842    -0.60660
O82         O  0.33979407  0.30768724  0.38367886    -0.51570
C83         C  0.38917453  0.32354579  0.33812077     0.70450
O84         O  0.40741836  0.30885770  0.36746894    -0.46430
C85         C  0.34259123  0.21820256  0.33367408     0.75150
O86         O  0.41286429  0.23580910  0.39457614    -0.58290
O87         O  0.33508715  0.23546808  0.35549874    -0.48380
O88         O  0.38537096  0.23318440  0.42142588    -0.54720
C89         C  0.35804561  0.32262008  0.41284741     0.85330
O90         O  0.36328714  0.31222838  0.32752465    -0.56620
O91         O  0.36299865  0.23362139  0.32902563    -0.59910
In92       In  0.42685532  0.48203650  0.20991220     1.36870
C93         C  0.42266448  0.55701219  0.20181349     0.77780
O94         O  0.46992792  0.49581591  0.25535767    -0.60660
O95         O  0.46953677  0.46307534  0.21112059    -0.51570
C96         C  0.41435377  0.43193428  0.24948521     0.70450
O97         O  0.41116170  0.46740414  0.25183395    -0.46430
C98         C  0.38531080  0.46878207  0.14386497     0.75150
O99         O  0.41654995  0.54016047  0.22502670    -0.58290
O100        O  0.41201856  0.46489183  0.15144384    -0.48380
O101        O  0.43057976  0.53514440  0.18325964    -0.54720
C102        C  0.48447174  0.47972758  0.24097398     0.85330
O103        O  0.42439677  0.42233677  0.22726063    -0.56620
O104        O  0.37993453  0.47646287  0.17055808    -0.59910
In105      In  0.32082005  0.48362541  0.04066022     1.36870
C106        C  0.32553250  0.55809115  0.05131715     0.77780
O107        O  0.27752908  0.49764186  0.49544370    -0.60660
O108        O  0.27852036  0.46406212  0.03948921    -0.51570
C109        C  0.33252696  0.43427142  0.49934834     0.70450
O110        O  0.33481220  0.46987271  0.99692541    -0.46430
C111        C  0.36239782  0.46910828  0.10646847     0.75150
O112        O  0.33350719  0.54200634  0.02927333    -0.58290
O113        O  0.33570451  0.46520690  0.09881090    -0.48380
O114        O  0.31481066  0.53606857  0.06656867    -0.54720
C115        C  0.26329727  0.48091888  0.00982570     0.85330
O116        O  0.32388878  0.42430089  0.02279971    -0.56620
O117        O  0.36775252  0.47737380  0.07991527    -0.59910
In118      In  0.12075854  0.69627042  0.12341662     1.36870
C119        C  0.08716035  0.75196785  0.08461659     0.77780
O120        O  0.13587635  0.73602971  0.17073552    -0.60660
O121        O  0.15964108  0.73436191  0.13907009    -0.51570
C122        C  0.10784318  0.64614916  0.16274120     0.70450
O123        O  0.08865798  0.66398639  0.13632688    -0.46430
C124        C  0.13327939  0.64830968  0.08200741     0.75150
O125        O  0.08394488  0.73710250  0.11075577    -0.58290
O126        O  0.15274336  0.66563298  0.10863285    -0.48380
O127        O  0.10353806  0.73379817  0.07424088    -0.54720
C128        C  0.15462599  0.75165728  0.16291350     0.85330
O129        O  0.13370631  0.65450361  0.16902532    -0.56620
O130        O  0.10756189  0.65576596  0.07706284    -0.59910
In131      In  0.07389561  0.48158919  0.28938161     1.36870
C132        C  0.08263045  0.40729446  0.29233013     0.77780
O133        O  0.11939468  0.49191543  0.33162607    -0.60660
O134        O  0.08536717  0.49418596  0.34832518    -0.51570
C135        C  0.08443331  0.53510966  0.25104018     0.70450
O136        O  0.09321108  0.50124782  0.25245065    -0.46430
C137        C  0.01633859  0.48095493  0.25781005     0.75150
O138        O  0.09197721  0.42898989  0.27510318    -0.58290
O139        O  0.03086038  0.49735277  0.28792667    -0.48380
O140        O  0.06832140  0.42343451  0.30695048    -0.54720
C141        C  0.11241402  0.49480191  0.35752285     0.85330
O142        O  0.06971380  0.54148812  0.26863422    -0.56620
O143        O  0.03126470  0.46593493  0.24329862    -0.59910
In144      In  0.17388732  0.48078820  0.46294087     1.36870
C145        C  0.16895855  0.40577544  0.46171885     0.77780
O146        O  0.12763728  0.48776838  0.42124861    -0.60660
O147        O  0.16124475  0.49665506  0.40453435    -0.51570
C148        C  0.16286971  0.53370741  0.50169883     0.70450
O149        O  0.15338568  0.50014592  0.99885632    -0.46430
C150        C  0.23144031  0.48156394  0.49334374     0.75150
O151        O  0.16120789  0.42649400  0.48136652    -0.58290
O152        O  0.21633738  0.49723580  0.46299246    -0.48380
O153        O  0.17875407  0.42353416  0.44262584    -0.54720
C154        C  0.13426036  0.49434312  0.39547237     0.85330
O155        O  0.17808756  0.54019132  0.48482078    -0.56620
O156        O  0.21709507  0.46662711  0.00854868    -0.59910
C157        C  0.16967500  0.61433845  0.06699460    -0.12070
C158        C  0.14029004  0.62076338  0.05922554     0.04940
C159        C  0.11855899  0.59903414  0.03148099    -0.07350
C160        C  0.12680958  0.56986240  0.01436713    -0.08100
C161        C  0.15610697  0.56324510  0.02253369    -0.02650
C162        C  0.17791522  0.58607141  0.04882153     0.04170
N163        N  0.20838129  0.58016383  0.05843028     0.66670
H164        H  0.18649651  0.63083635  0.08806815     0.15570
H165        H  0.11007988  0.55319018  0.49331364     0.15280
N166        N  0.08811238  0.60675796  0.01945027     0.74380
O167        O  0.22597672  0.60761723  0.06983943    -0.39070
O168        O  0.21834849  0.54705607  0.05924056    -0.39010
O169        O  0.07806379  0.63914189  0.00671031    -0.39720
O170        O  0.07064099  0.57961282  0.01451258    -0.39790
C171        C  0.12432841  0.59894450  0.21300915    -0.12070
C172        C  0.10103316  0.61781459  0.18494901     0.04940
C173        C  0.07223638  0.60998722  0.17984241    -0.07350
C174        C  0.06763474  0.58422999  0.20305487    -0.08100
C175        C  0.09090937  0.56489808  0.23034172    -0.02650
C176        C  0.11971160  0.57264881  0.23583721     0.04170
N177        N  0.14444960  0.55528074  0.26506195     0.66670
H178        H  0.14649884  0.60513645  0.21764130     0.15570
H179        H  0.04551765  0.57789169  0.19863689     0.15280
N180        N  0.04736444  0.62677720  0.15076105     0.74380
O181        O  0.16801992  0.55079701  0.26232050    -0.39070
O182        O  0.14408226  0.54874623  0.29528949    -0.39010
O183        O  0.04212639  0.61925749  0.11823292    -0.39720
O184        O  0.02759189  0.64173802  0.15734536    -0.39790
C185        C  0.33475065  0.36718825  0.48084887    -0.12070
C186        C  0.33920636  0.40607253  0.47671859     0.04940
C187        C  0.34932170  0.41681313  0.45075407    -0.07350
C188        C  0.35416589  0.38885389  0.42943770    -0.08100
C189        C  0.34973898  0.35026466  0.43373675    -0.02650
C190        C  0.33997871  0.33898263  0.45984544     0.04170
N191        N  0.33591176  0.29946778  0.46611649     0.66670
H192        H  0.32696962  0.35862345  0.50057355     0.15570
H193        H  0.36232315  0.39725498  0.40999401     0.15280
N194        N  0.35564425  0.45562035  0.44623308     0.74380
O195        O  0.33686186  0.28913457  0.49625729    -0.39070
O196        O  0.32961754  0.27505733  0.44113187    -0.39010
O197        O  0.37586738  0.47266064  0.47209297    -0.39720
O198        O  0.34550595  0.46992074  0.41474870    -0.39790
C199        C  0.39189302  0.34127508  0.28134852    -0.12070
C200        C  0.39725995  0.35116522  0.31699333     0.04940
C201        C  0.40747027  0.38809636  0.33010508    -0.07350
C202        C  0.41212184  0.41403348  0.30697046    -0.08100
C203        C  0.40726957  0.40394051  0.27148750    -0.02650
C204        C  0.39664450  0.36715213  0.25831014     0.04170
N205        N  0.38911427  0.35620389  0.22131087     0.66670
H206        H  0.38318529  0.31334782  0.27106251     0.15570
H207        H  0.42023988  0.44219735  0.31706975     0.15280
N208        N  0.41208053  0.40043048  0.36589446     0.74380
O209        O  0.39238228  0.32211183  0.21393566    -0.39070
O210        O  0.37509299  0.37881683  0.19554178    -0.39010
O211        O  0.42374772  0.37857872  0.39294850    -0.39720
O212        O  0.40764725  0.43475385  0.37127578    -0.39790
C213        C  0.41458450  0.16662792  0.46169305    -0.12070
C214        C  0.41659661  0.17948466  0.43024495     0.04940
C215        C  0.42195896  0.15273703  0.40794604    -0.07350
C216        C  0.42369267  0.11406915  0.41652317    -0.08100
C217        C  0.42049110  0.10085443  0.44709648    -0.02650
C218        C  0.41643227  0.12770962  0.47034844     0.04170
N219        N  0.41316213  0.11622668  0.50204468     0.66670
H220        H  0.40988258  0.18677103  0.47858659     0.15570
H221        H  0.42712356  0.09410297  0.39846368     0.15280
N222        N  0.42344451  0.16378352  0.37495072     0.74380
O223        O  0.42883194  0.13131614  0.03236156    -0.39070
O224        O  0.39105959  0.09739447  0.99856056    -0.39010
O225        O  0.44384289  0.18499260  0.37636645    -0.39720
O226        O  0.40792257  0.14690886  0.34555001    -0.39790
C227        C  0.33271812  0.12499867  0.28338666    -0.12070
C228        C  0.33085170  0.09997836  0.30908365     0.04940
C229        C  0.32930385  0.11504796  0.34041726    -0.07350
C230        C  0.32922349  0.15448435  0.34493580    -0.08100
C231        C  0.33247236  0.17948523  0.32020946    -0.02650
C232        C  0.33358583  0.16468188  0.28854753     0.04170
N233        N  0.33543186  0.18938722  0.26149982     0.66670
H234        H  0.33320243  0.11356597  0.25899289     0.15570
H235        H  0.32964574  0.16549316  0.36999444     0.15280
N236        N  0.33029642  0.09097712  0.36940437     0.74380
O237        O  0.34632627  0.17744450  0.24086839    -0.39070
O238        O  0.32358144  0.22185503  0.25563173    -0.39010
O239        O  0.35015638  0.06623868  0.38287744    -0.39720
O240        O  0.31478791  0.09880101  0.38568997    -0.39790
C241        C  0.43021692  0.88261578  0.04763100    -0.12070
C242        C  0.40751213  0.90451756  0.02213624     0.04940
C243        C  0.37879350  0.89914706  0.01806546    -0.07350
C244        C  0.37373956  0.87258759  0.04033716    -0.08100
C245        C  0.39647306  0.85092338  0.06637595    -0.02650
C246        C  0.42518569  0.85645232  0.07023232     0.04170
N247        N  0.44953436  0.83633606  0.09701774     0.66670
H248        H  0.45230775  0.88688148  0.05092469     0.15570
H249        H  0.35157719  0.86830536  0.03671158     0.15280
N250        N  0.35441574  0.91886469  0.49048365     0.74380
O251        O  0.46718620  0.81951126  0.08771710    -0.39070
O252        O  0.45688150  0.84244003  0.13035497    -0.39010
O253        O  0.35331304  0.92418545  0.45930467    -0.39720
O254        O  0.33214445  0.92620834  0.49549003    -0.39790
C255        C  0.33626682  0.91294921  0.19394563    -0.12070
C256        C  0.34076513  0.90332831  0.22940412     0.04940
C257        C  0.35187281  0.86681920  0.24315857    -0.07350
C258        C  0.35895504  0.84145486  0.22166252    -0.08100
C259        C  0.35406148  0.85095126  0.18614462    -0.02650
C260        C  0.34259054  0.88716230  0.17194814     0.04170
N261        N  0.33821073  0.89877316  0.13606287     0.66670
H262        H  0.32798718  0.94097026  0.18340138     0.15570
H263        H  0.36763584  0.81361181  0.23245631     0.15280
N264        N  0.35668863  0.85516004  0.27898640     0.74380
O265        O  0.31875229  0.92292609  0.11860964    -0.39070
O266        O  0.35568870  0.88836415  0.12333470    -0.39010
O267        O  0.33513595  0.84888323  0.28571144    -0.39720
O268        O  0.38142525  0.84275442  0.30071733    -0.39790
C269        C  0.32715641  0.62495859  0.03207609    -0.12070
C270        C  0.32818667  0.59937918  0.05901507     0.04940
C271        C  0.33019199  0.61370503  0.09247140    -0.07350
C272        C  0.33032197  0.65305470  0.09770392    -0.08100
C273        C  0.33044783  0.67866178  0.07144195    -0.02650
C274        C  0.32836207  0.66456008  0.03788904     0.04170
N275        N  0.32723237  0.68988162  0.00957495     0.66670
H276        H  0.32507362  0.61401179  0.00624171     0.15570
H277        H  0.33339905  0.66359401  0.12410773     0.15280
N278        N  0.33469622  0.58899391  0.12255340     0.74380
O279        O  0.33499682  0.67844427  0.48573609    -0.39070
O280        O  0.31585347  0.72249073  0.00614530    -0.39010
O281        O  0.35402625  0.56338790  0.13179090    -0.39720
O282        O  0.32316028  0.59685537  0.14359961    -0.39790
C283        C  0.41257607  0.66397052  0.20942803    -0.12070
C284        C  0.41662192  0.67760692  0.17955123     0.04940
C285        C  0.42435013  0.65155953  0.15875565    -0.07350
C286        C  0.42630899  0.61276527  0.16706056    -0.08100
C287        C  0.42089161  0.59878360  0.19581211    -0.02650
C288        C  0.41440963  0.62497108  0.21762889     0.04170
N289        N  0.40848520  0.61267968  0.24720405     0.66670
H290        H  0.40613088  0.68350366  0.22521619     0.15570
H291        H  0.43161169  0.59329330  0.15016829     0.15280
N292        N  0.42817097  0.66339247  0.12747522     0.74380
O293        O  0.42219027  0.62741723  0.27824417    -0.39070
O294        O  0.38580486  0.59365457  0.24074434    -0.39010
O295        O  0.44868748  0.68563538  0.13128559    -0.39720
O296        O  0.41451220  0.64665584  0.09741972    -0.39790
C297        C  0.07079736  0.84323179  0.03033405    -0.12070
C298        C  0.07903487  0.86972993  0.05883549     0.04940
C299        C  0.08690460  0.85687553  0.09472552    -0.07350
C300        C  0.08542579  0.81807088  0.10099495    -0.08100
C301        C  0.07819735  0.79135404  0.07288369    -0.02650
C302        C  0.07037277  0.80392945  0.03692442     0.04170
N303        N  0.06155215  0.77747362  0.00704519     0.66670
H304        H  0.06417144  0.85331626  0.00281842     0.15570
H305        H  0.09289457  0.80834789  0.12880811     0.15280
N306        N  0.09868680  0.88226858  0.12543613     0.74380
O307        O  0.06233582  0.78697415  0.97763952    -0.39070
O308        O  0.05029961  0.74595641  0.00854638    -0.39010
O309        O  0.09438454  0.87604872  0.15320017    -0.39720
O310        O  0.11709697  0.90712474  0.12725755    -0.39790
C311        C  0.16522011  0.80270437  0.20910076    -0.12070
C312        C  0.16634257  0.78976367  0.17709731     0.04940
C313        C  0.17406987  0.81564694  0.15627682    -0.07350
C314        C  0.17887704  0.85380624  0.16678084    -0.08100
C315        C  0.17565486  0.86736745  0.19725542    -0.02650
C316        C  0.17030725  0.84105642  0.21982631     0.04170
N317        N  0.17032622  0.85247017  0.25367504     0.66670
H318        H  0.15987065  0.78288631  0.22559205     0.15570
H319        H  0.18322642  0.87349413  0.14930391     0.15280
N320        N  0.17434839  0.80489644  0.12251012     0.74380
O321        O  0.15301597  0.83710602  0.26431552    -0.39070
O322        O  0.19067138  0.87297155  0.27562012    -0.39010
O323        O  0.15072124  0.79666693  0.09562075    -0.39720
O324        O  0.19642583  0.81224630  0.11718851    -0.39790
C325        C  0.12426701  0.09266455  0.45662856    -0.12070
C326        C  0.10180865  0.11624101  0.43261801     0.04940
C327        C  0.07365220  0.11284054  0.43115794    -0.07350
C328        C  0.06893000  0.08682366  0.45411513    -0.08100
C329        C  0.09134505  0.06309715  0.47765593    -0.02650
C330        C  0.11951010  0.06631733  0.47928710     0.04170
N331        N  0.14376303  0.04466930  0.00489225     0.66670
H332        H  0.14604470  0.09529942  0.45840281     0.15570
H333        H  0.04725246  0.08426027  0.45271987     0.15280
N334        N  0.04961377  0.13529007  0.40673052     0.74380
O335        O  0.16450779  0.03553089  0.99734221    -0.39070
O336        O  0.14657119  0.03934315  0.03685774    -0.39010
O337        O  0.03995900  0.13013167  0.37286932    -0.39720
O338        O  0.03427572  0.15356047  0.41879159    -0.39790
C339        C  0.14387305  0.05232225  0.29104043    -0.12070
C340        C  0.15985193  0.06386892  0.27205436     0.04940
C341        C  0.16991230  0.10195182  0.27594794    -0.07350
C342        C  0.16465755  0.12673269  0.29945825    -0.08100
C343        C  0.14833341  0.11517227  0.31778547    -0.02650
C344        C  0.13782472  0.07746859  0.31370411     0.04170
N345        N  0.12169739  0.06396551  0.33292622     0.66670
H346        H  0.13623581  0.02325070  0.28854664     0.15570
H347        H  0.17203063  0.15596797  0.30189426     0.15280
N348        N  0.18438724  0.11658002  0.25533683     0.74380
O349        O  0.10346883  0.03741246  0.31975648    -0.39070
O350        O  0.12770697  0.07557624  0.36469374    -0.39010
O351        O  0.17090224  0.11808731  0.22109050    -0.39720
O352        O  0.20753437  0.13547550  0.27118859    -0.39790
C353        C  0.06590216  0.34055238  0.28292078    -0.12070
C354        C  0.08903750  0.36646535  0.29694893     0.04940
C355        C  0.11773211  0.35317605  0.31715415    -0.07350
C356        C  0.12252042  0.31399489  0.32254340    -0.08100
C357        C  0.09933114  0.28790005  0.31010696    -0.02650
C358        C  0.07067145  0.30119895  0.28902770     0.04170
N359        N  0.04646313  0.27544191  0.27353681     0.66670
H360        H  0.04397984  0.35118478  0.26722018     0.15570
H361        H  0.14443043  0.30419365  0.33968540     0.15280
N362        N  0.14179586  0.37884898  0.33504870     0.74380
O363        O  0.02104067  0.28667917  0.26666742    -0.39070
O364        O  0.04977890  0.24303000  0.26244239    -0.39010
O365        O  0.13844317  0.40907346  0.34959146    -0.39720
O366        O  0.16731295  0.36859219  0.34132803    -0.39790
C367        C  0.18040485  0.30109296  0.44917582    -0.12070
C368        C  0.15253584  0.28682383  0.44101122     0.04940
C369        C  0.13193021  0.31102582  0.44538919    -0.07350
C370        C  0.13880868  0.34927514  0.45454617    -0.08100
C371        C  0.16574166  0.36411944  0.45975777    -0.02650
C372        C  0.18749228  0.33948572  0.45877152     0.04170
N373        N  0.21656427  0.35268707  0.46727754     0.66670
H374        H  0.19639527  0.28253508  0.44651324     0.15570
H375        H  0.12238515  0.36806999  0.45594691     0.15280
N376        N  0.10349667  0.29788642  0.43911490     0.74380
O377        O  0.23332877  0.33300106  0.45852134    -0.39070
O378        O  0.22690254  0.38141774  0.48732924    -0.39010
O379        O  0.10087736  0.26880075  0.45556349    -0.39720
O380        O  0.08133695  0.31811050  0.42119283    -0.39790
In381      In  0.12452151  0.19411942  0.87394641     1.36870
C382        C  0.10594755  0.24950219  0.82652279     0.77780
O383        O  0.11744993  0.23985255  0.90615118    -0.60660
O384        O  0.16122457  0.22828764  0.91536119    -0.51570
C385        C  0.10927617  0.14491451  0.91129507     0.70450
O386        O  0.09059063  0.16278227  0.88417258    -0.46430
C387        C  0.14014705  0.14386219  0.83802104     0.75150
O388        O  0.08826996  0.23025651  0.83420928    -0.58290
O389        O  0.15873387  0.16396864  0.86318306    -0.48380
O390        O  0.13153589  0.23632509  0.83890490    -0.54720
C391        C  0.14376444  0.24996047  0.92144044     0.85330
O392        O  0.13549729  0.15312633  0.91914965    -0.56620
O393        O  0.11379148  0.15009556  0.83112117    -0.59910
In394      In  0.17763100  0.98417274  0.70945063     1.36870
C395        C  0.17601562  0.90915339  0.70254449     0.77780
O396        O  0.13100805  0.99093680  0.66946365    -0.60660
O397        O  0.16361395  0.00248916  0.65139635    -0.51570
C398        C  0.16634625  0.03521700  0.74966272     0.70450
O399        O  0.15895663  0.00063437  0.74810551    -0.46430
C400        C  0.23484172  0.98531160  0.74187287     0.75150
O401        O  0.16682606  0.92584115  0.72314828    -0.58290
O402        O  0.22045967  0.00208234  0.71184239    -0.48380
O403        O  0.18496286  0.93120570  0.68528635    -0.54720
C404        C  0.13680752  0.99915761  0.64327383     0.85330
O405        O  0.17978232  0.04309722  0.73082591    -0.56620
O406        O  0.21989069  0.96971043  0.75591553    -0.59910
In407      In  0.07303452  0.98496894  0.53993633     1.36870
C408        C  0.07693500  0.91079397  0.55076848     0.77780
O409        O  0.11980251  0.99128409  0.57940851    -0.60660
O410        O  0.08747091  0.00419180  0.59775784    -0.51570
C411        C  0.08455886  0.03480473  0.49950850     0.70450
O412        O  0.09280671  0.00044515  0.50227252    -0.46430
C413        C  0.01573132  0.98559406  0.50884361     0.75150
O414        O  0.08233380  0.92563161  0.52602833    -0.58290
O415        O  0.03040459  0.00368732  0.53795366    -0.48380
O416        O  0.06934041  0.93388983  0.56869110    -0.54720
C417        C  0.11420312  0.99974263  0.60574594     0.85330
O418        O  0.07000924  0.04330056  0.51689881    -0.56620
O419        O  0.03040776  0.96871733  0.99498746    -0.59910
In420      In  0.37376866  0.77255489  0.62522088     1.36870
C421        C  0.34084024  0.71741053  0.58438904     0.77780
O422        O  0.36281015  0.81357962  0.57964051    -0.60660
O423        O  0.40748575  0.80443452  0.61473198    -0.51570
C424        C  0.36078417  0.82234520  0.66452134     0.70450
O425        O  0.34212214  0.81084365  0.63391653    -0.46430
C426        C  0.40555544  0.71603108  0.66532353     0.75150
O427        O  0.33483407  0.73446793  0.60758721    -0.58290
O428        O  0.41242363  0.73377501  0.64325403    -0.48380
O429        O  0.36031799  0.73293851  0.57790515    -0.54720
C430        C  0.38892484  0.82215950  0.58757687     0.85330
O431        O  0.38580093  0.80768630  0.67529204    -0.56620
O432        O  0.38547702  0.73139934  0.67093657    -0.59910
In433      In  0.32391754  0.98416848  0.79143361     1.36870
C434        C  0.32875742  0.05854802  0.80197023     0.77780
O435        O  0.28159645  0.99930878  0.74522068    -0.60660
O436        O  0.28096175  0.96678461  0.78908279    -0.51570
C437        C  0.33478957  0.93241296  0.75163748     0.70450
O438        O  0.33736416  0.96775416  0.74773947    -0.46430
C439        C  0.36438037  0.96954896  0.85754973     0.75150
O440        O  0.33804148  0.04214699  0.78128671    -0.58290
O441        O  0.33755161  0.96552870  0.84907437    -0.48380
O442        O  0.31702831  0.03675799  0.81617141    -0.54720
C443        C  0.26660407  0.98371445  0.75917632     0.85330
O444        O  0.32655687  0.92402190  0.77577536    -0.56620
O445        O  0.37046812  0.97812400  0.83161751    -0.59910
In446      In  0.42659206  0.98422192  0.96164446     1.36870
C447        C  0.42216084  0.05913386  0.95337735     0.77780
O448        O  0.46930226  0.00050890  0.50645382    -0.60660
O449        O  0.46924405  0.96617332  0.96313024    -0.51570
C450        C  0.41455833  0.93334506  0.50095501     0.70450
O451        O  0.40516840  0.96720440  0.49720150    -0.46430
C452        C  0.38658550  0.96927601  0.89524583     0.75150
O453        O  0.41820133  0.04267495  0.97848048    -0.58290
O454        O  0.41349733  0.96616133  0.90378685    -0.48380
O455        O  0.42791070  0.03689997  0.93312186    -0.54720
C456        C  0.48395092  0.98402350  0.99236133     0.85330
O457        O  0.43051623  0.92588222  0.98519849    -0.56620
O458        O  0.38030058  0.97660075  0.92125792    -0.59910
In459      In  0.37383550  0.27401172  0.87526740     1.36870
C460        C  0.40570259  0.21797571  0.91628566     0.77780
O461        O  0.38418913  0.31263199  0.92268844    -0.60660
O462        O  0.33979431  0.30768730  0.88367895    -0.51570
C463        C  0.38917470  0.32354583  0.83812076     0.70450
O464        O  0.40741855  0.30885769  0.86746889    -0.46430
C465        C  0.34259139  0.21820271  0.83367403     0.75150
O466        O  0.41286444  0.23580908  0.89457617    -0.58290
O467        O  0.33508730  0.23546824  0.85549867    -0.48380
O468        O  0.38537106  0.23318441  0.92142584    -0.54720
C469        C  0.35804589  0.32262015  0.91284748     0.85330
O470        O  0.36328730  0.31222848  0.82752470    -0.56620
O471        O  0.36299884  0.23362150  0.82902562    -0.59910
In472      In  0.42685528  0.48203655  0.70991207     1.36870
C473        C  0.42266446  0.55701223  0.70181338     0.77780
O474        O  0.46992788  0.49581594  0.75535755    -0.60660
O475        O  0.46953675  0.46307541  0.71112047    -0.51570
C476        C  0.41435378  0.43193432  0.74948509     0.70450
O477        O  0.41116169  0.46740417  0.75183381    -0.46430
C478        C  0.38531071  0.46878211  0.64386486     0.75150
O479        O  0.41654992  0.54016051  0.72502657    -0.58290
O480        O  0.41201847  0.46489189  0.65144368    -0.48380
O481        O  0.43057974  0.53514445  0.68325951    -0.54720
C482        C  0.48447170  0.47972763  0.74097387     0.85330
O483        O  0.42439678  0.42233682  0.72726051    -0.56620
O484        O  0.37993448  0.47646290  0.67055799    -0.59910
In485      In  0.32081987  0.48362544  0.54066017     1.36870
C486        C  0.32553240  0.55809117  0.55131713     0.77780
O487        O  0.27752927  0.49764170  0.99544367    -0.60660
O488        O  0.27852017  0.46406229  0.53948925    -0.51570
C489        C  0.33252725  0.43427143  0.99934845     0.70450
O490        O  0.33481194  0.46987270  0.49692530    -0.46430
C491        C  0.36239770  0.46910830  0.60646838     0.75150
O492        O  0.33350702  0.54200635  0.52927326    -0.58290
O493        O  0.33570440  0.46520691  0.59881086    -0.48380
O494        O  0.31481058  0.53606861  0.56656869    -0.54720
C495        C  0.26329709  0.48091911  0.50982577     0.85330
O496        O  0.32388851  0.42430090  0.52279962    -0.56620
O497        O  0.36775236  0.47737384  0.57991515    -0.59910
In498      In  0.12075943  0.69627104  0.62341789     1.36870
C499        C  0.08716136  0.75196893  0.58461851     0.77780
O500        O  0.13587806  0.73602978  0.67073724    -0.60660
O501        O  0.15964209  0.73436222  0.63907095    -0.51570
C502        C  0.10784381  0.64614952  0.66274205     0.70450
O503        O  0.08865870  0.66398713  0.63632794    -0.46430
C504        C  0.13328000  0.64831051  0.58200828     0.75150
O505        O  0.08394652  0.73710404  0.61075829    -0.58290
O506        O  0.15274407  0.66563361  0.60863379    -0.48380
O507        O  0.10353833  0.73379868  0.57424200    -0.54720
C508        C  0.15462748  0.75165741  0.66291482     0.85330
O509        O  0.13370698  0.65450378  0.66902621    -0.56620
O510        O  0.10756254  0.65576691  0.57706383    -0.59910
In511      In  0.07389566  0.48158872  0.78938132     1.36870
C512        C  0.08263031  0.40729395  0.79232987     0.77780
O513        O  0.11939482  0.49191455  0.83162570    -0.60660
O514        O  0.08536736  0.49418561  0.84832489    -0.51570
C515        C  0.08443343  0.53510931  0.75104005     0.70450
O516        O  0.09321108  0.50124743  0.75245031    -0.46430
C517        C  0.01633863  0.48095462  0.75780986     0.75150
O518        O  0.09197702  0.42898927  0.77510278    -0.58290
O519        O  0.03086048  0.49735236  0.78792652    -0.48380
O520        O  0.06832138  0.42343414  0.80695031    -0.54720
C521        C  0.11241422  0.49480125  0.85752251     0.85330
O522        O  0.06971399  0.54148773  0.76863417    -0.56620
O523        O  0.03126469  0.46593464  0.74329833    -0.59910
In524      In  0.17388750  0.48078756  0.96294059     1.36870
C525        C  0.16895872  0.40577480  0.96171879     0.77780
O526        O  0.12763749  0.48776790  0.92124829    -0.60660
O527        O  0.16124497  0.49665410  0.90453398    -0.51570
C528        C  0.16286975  0.53370669  0.00169848     0.70450
O529        O  0.15338546  0.50014673  0.49885654    -0.46430
C530        C  0.23144049  0.48156356  0.99334359     0.75150
O531        O  0.16120777  0.42649350  0.98136608    -0.58290
O532        O  0.21633756  0.49723536  0.96299228    -0.48380
O533        O  0.17875459  0.42353339  0.94262606    -0.54720
C534        C  0.13426058  0.49434240  0.89547202     0.85330
O535        O  0.17808753  0.54019072  0.98482035    -0.56620
O536        O  0.21709489  0.46662757  0.50854888    -0.59910
C537        C  0.16967541  0.61433901  0.56699530    -0.12070
C538        C  0.14029048  0.62076426  0.55922624     0.04940
C539        C  0.11855930  0.59903532  0.53148153    -0.07350
C540        C  0.12680972  0.56986351  0.51436755    -0.08100
C541        C  0.15610708  0.56324587  0.52253414    -0.02650
C542        C  0.17791546  0.58607193  0.54882210     0.04170
N543        N  0.20838150  0.58016403  0.55843086     0.66670
H544        H  0.18649702  0.63083669  0.58806895     0.15570
H545        H  0.11007984  0.55318884  0.99331332     0.15280
N546        N  0.08811274  0.60675953  0.51945078     0.74380
O547        O  0.22597710  0.60761724  0.56984013    -0.39070
O548        O  0.21834849  0.54705616  0.55924104    -0.39010
O549        O  0.07806443  0.63914365  0.50671113    -0.39720
O550        O  0.07064112  0.57961460  0.51451278    -0.39790
C551        C  0.12432882  0.59894452  0.71300969    -0.12070
C552        C  0.10103365  0.61781475  0.68494957     0.04940
C553        C  0.07223682  0.60998729  0.67984271    -0.07350
C554        C  0.06763505  0.58422986  0.70305492    -0.08100
C555        C  0.09090961  0.56489783  0.73034177    -0.02650
C556        C  0.11971189  0.57264863  0.73583751     0.04170
N557        N  0.14444981  0.55528044  0.76506225     0.66670
H558        H  0.14649929  0.60513652  0.71764205     0.15570
H559        H  0.04551792  0.57789150  0.69863675     0.15280
N560        N  0.04736496  0.62677735  0.65076130     0.74380
O561        O  0.16802019  0.55079680  0.76232095    -0.39070
O562        O  0.14408233  0.54874572  0.79528968    -0.39010
O563        O  0.04212715  0.61925801  0.61823318    -0.39720
O564        O  0.02759224  0.64173790  0.65734546    -0.39790
C565        C  0.33475102  0.36718827  0.98084904    -0.12070
C566        C  0.33920667  0.40607256  0.97671871     0.04940
C567        C  0.34932195  0.41681318  0.95075414    -0.07350
C568        C  0.35416614  0.38885395  0.92943776    -0.08100
C569        C  0.34973929  0.35026471  0.93373686    -0.02650
C570        C  0.33997908  0.33898266  0.95984560     0.04170
N571        N  0.33591217  0.29946781  0.96611667     0.66670
H572        H  0.32697003  0.35862345  0.00057375     0.15570
H573        H  0.36232335  0.39725505  0.90999404     0.15280
N574        N  0.35564442  0.45562042  0.94623309     0.74380
O575        O  0.33686235  0.28913459  0.99625752    -0.39070
O576        O  0.32961792  0.27505736  0.94113205    -0.39010
O577        O  0.37586755  0.47266076  0.97209293    -0.39720
O578        O  0.34550603  0.46992078  0.91474870    -0.39790
C579        C  0.39189317  0.34127509  0.78134850    -0.12070
C580        C  0.39726009  0.35116526  0.81699330     0.04940
C581        C  0.40747036  0.38809643  0.83010502    -0.07350
C582        C  0.41212189  0.41403354  0.80697036    -0.08100
C583        C  0.40726963  0.40394054  0.77148741    -0.02650
C584        C  0.39664460  0.36715214  0.75831009     0.04170
N585        N  0.38911436  0.35620388  0.72131083     0.66670
H586        H  0.38318547  0.31334781  0.77106252     0.15570
H587        H  0.42023990  0.44219743  0.81706962     0.15280
N588        N  0.41208061  0.40043057  0.86589440     0.74380
O589        O  0.39238241  0.32211183  0.71393564    -0.39070
O590        O  0.37509305  0.37881679  0.69554172    -0.39010
O591        O  0.42374772  0.37857879  0.89294843    -0.39720
O592        O  0.40764738  0.43475396  0.87127571    -0.39790
C593        C  0.41458453  0.16662790  0.96169302    -0.12070
C594        C  0.41659668  0.17948464  0.93024494     0.04940
C595        C  0.42195903  0.15273699  0.90794604    -0.07350
C596        C  0.42369273  0.11406911  0.91652318    -0.08100
C597        C  0.42049113  0.10085441  0.94709648    -0.02650
C598        C  0.41643228  0.12770961  0.97034842     0.04170
N599        N  0.41316211  0.11622669  0.00204464     0.66670
H600        H  0.40988260  0.18677103  0.97858655     0.15570
H601        H  0.42712363  0.09410292  0.89846371     0.15280
N602        N  0.42344460  0.16378347  0.87495073     0.74380
O603        O  0.42883201  0.13131610  0.53236161    -0.39070
O604        O  0.39105962  0.09739449  0.49856063    -0.39010
O605        O  0.44384300  0.18499252  0.87636648    -0.39720
O606        O  0.40792267  0.14690879  0.84555002    -0.39790
C607        C  0.33271834  0.12499883  0.78338665    -0.12070
C608        C  0.33085195  0.09997853  0.80908366     0.04940
C609        C  0.32930406  0.11504813  0.84041725    -0.07350
C610        C  0.32922364  0.15448452  0.84493575    -0.08100
C611        C  0.33247251  0.17948539  0.82020940    -0.02650
C612        C  0.33358600  0.16468205  0.78854748     0.04170
N613        N  0.33543201  0.18938739  0.76149976     0.66670
H614        H  0.33320267  0.11356613  0.75899289     0.15570
H615        H  0.32964588  0.16549334  0.86999438     0.15280
N616        N  0.33029664  0.09097730  0.86940436     0.74380
O617        O  0.34632640  0.17744467  0.74086831    -0.39070
O618        O  0.32358158  0.22185520  0.75563169    -0.39010
O619        O  0.35015661  0.06623887  0.88287745    -0.39720
O620        O  0.31478812  0.09880117  0.88568996    -0.39790
C621        C  0.43021690  0.88261581  0.54763098    -0.12070
C622        C  0.40751212  0.90451759  0.52213622     0.04940
C623        C  0.37879348  0.89914709  0.51806544    -0.07350
C624        C  0.37373955  0.87258763  0.54033713    -0.08100
C625        C  0.39647305  0.85092341  0.56637592    -0.02650
C626        C  0.42518568  0.85645235  0.57023229     0.04170
N627        N  0.44953434  0.83633608  0.59701771     0.66670
H628        H  0.45230774  0.88688151  0.55092467     0.15570
H629        H  0.35157717  0.86830539  0.53671155     0.15280
N630        N  0.35441576  0.91886465  0.99048366     0.74380
O631        O  0.46718618  0.81951128  0.58771707    -0.39070
O632        O  0.45688148  0.84244006  0.63035495    -0.39010
O633        O  0.35331306  0.92418542  0.95930469    -0.39720
O634        O  0.33214446  0.92620829  0.99549003    -0.39790
C635        C  0.33626687  0.91294928  0.69394557    -0.12070
C636        C  0.34076520  0.90332840  0.72940408     0.04940
C637        C  0.35187286  0.86681929  0.74315852    -0.07350
C638        C  0.35895505  0.84145492  0.72166247    -0.08100
C639        C  0.35406148  0.85095130  0.68614456    -0.02650
C640        C  0.34259054  0.88716234  0.67194807     0.04170
N641        N  0.33821070  0.89877317  0.63606278     0.66670
H642        H  0.32798725  0.94097034  0.68340132     0.15570
H643        H  0.36763583  0.81361187  0.73245626     0.15280
N644        N  0.35668869  0.85516016  0.77898637     0.74380
O645        O  0.31875226  0.92292609  0.61860956    -0.39070
O646        O  0.35568866  0.88836415  0.62333460    -0.39010
O647        O  0.33513602  0.84888345  0.78571146    -0.39720
O648        O  0.38142529  0.84275446  0.80071727    -0.39790
C649        C  0.32715633  0.62495860  0.53207607    -0.12070
C650        C  0.32818659  0.59937920  0.55901506     0.04940
C651        C  0.33019194  0.61370506  0.59247140    -0.07350
C652        C  0.33032194  0.65305473  0.59770392    -0.08100
C653        C  0.33044779  0.67866180  0.57144193    -0.02650
C654        C  0.32836201  0.66456009  0.53788902     0.04170
N655        N  0.32723231  0.68988163  0.50957492     0.66670
H656        H  0.32507353  0.61401180  0.50624168     0.15570
H657        H  0.33339903  0.66359404  0.62410773     0.15280
N658        N  0.33469618  0.58899394  0.62255340     0.74380
O659        O  0.33499689  0.67844427  0.98573612    -0.39070
O660        O  0.31585341  0.72249074  0.50614527    -0.39010
O661        O  0.35402621  0.56338793  0.63179089    -0.39720
O662        O  0.32316026  0.59685542  0.64359963    -0.39790
C663        C  0.41257609  0.66397056  0.70942796    -0.12070
C664        C  0.41662193  0.67760697  0.67955117     0.04940
C665        C  0.42435014  0.65155959  0.65875558    -0.07350
C666        C  0.42630899  0.61276532  0.66706047    -0.08100
C667        C  0.42089161  0.59878364  0.69581202    -0.02650
C668        C  0.41440964  0.62497112  0.71762881     0.04170
N669        N  0.40848520  0.61267971  0.74720397     0.66670
H670        H  0.40613089  0.68350369  0.72521614     0.15570
H671        H  0.43161169  0.59329337  0.65016819     0.15280
N672        N  0.42817099  0.66339254  0.62747516     0.74380
O673        O  0.42219028  0.62741723  0.77824409    -0.39070
O674        O  0.38580485  0.59365461  0.74074424    -0.39010
O675        O  0.44868750  0.68563545  0.63128555    -0.39720
O676        O  0.41451222  0.64665592  0.59741966    -0.39790
C677        C  0.07079639  0.84323228  0.53033474    -0.12070
C678        C  0.07903568  0.86973075  0.55883609     0.04940
C679        C  0.08690751  0.85687687  0.59472673    -0.07350
C680        C  0.08542896  0.81807237  0.60099697    -0.08100
C681        C  0.07819860  0.79135518  0.57288569    -0.02650
C682        C  0.07037198  0.80393006  0.53692580     0.04170
N683        N  0.06154929  0.77747387  0.50704665     0.66670
H684        H  0.06416887  0.85331643  0.50281870     0.15570
H685        H  0.09289926  0.80834972  0.62881045     0.15280
N686        N  0.09869143  0.88227031  0.62543691     0.74380
O687        O  0.06233043  0.78697403  0.47763943    -0.39070
O688        O  0.05029740  0.74595675  0.50854968    -0.39010
O689        O  0.09439151  0.87605080  0.65320270    -0.39720
O690        O  0.11710072  0.90712667  0.62725582    -0.39790
C691        C  0.16522153  0.80270468  0.70910189    -0.12070
C692        C  0.16634421  0.78976375  0.67709863     0.04940
C693        C  0.17407170  0.81564686  0.65627820    -0.07350
C694        C  0.17887865  0.85380626  0.66678193    -0.08100
C695        C  0.17565608  0.86736771  0.69725618    -0.02650
C696        C  0.17030844  0.84105683  0.71982716     0.04170
N697        N  0.17032709  0.85247084  0.75367563     0.66670
H698        H  0.15987196  0.78288675  0.72559320     0.15570
H699        H  0.18322815  0.87349402  0.64930499     0.15280
N700        N  0.17435057  0.80489610  0.62251177     0.74380
O701        O  0.15301672  0.83710675  0.76431596    -0.39070
O702        O  0.19067206  0.87297246  0.77562071    -0.39010
O703        O  0.15072349  0.79666724  0.59562200    -0.39720
O704        O  0.19642842  0.81224519  0.61719079    -0.39790
C705        C  0.12426697  0.09266368  0.95662836    -0.12070
C706        C  0.10180860  0.11624020  0.93261790     0.04940
C707        C  0.07365217  0.11283972  0.93115790    -0.07350
C708        C  0.06893001  0.08682284  0.95411511    -0.08100
C709        C  0.09134507  0.06309630  0.97765585    -0.02650
C710        C  0.11951009  0.06631643  0.97928691     0.04170
N711        N  0.14376304  0.04467028  0.50489256     0.66670
H712        H  0.14604463  0.09529854  0.95840254     0.15570
H713        H  0.04725249  0.08425946  0.95271992     0.15280
N714        N  0.04961372  0.13528925  0.90673051     0.74380
O715        O  0.16450787  0.03553190  0.49734264    -0.39070
O716        O  0.14657112  0.03934422  0.53685802    -0.39010
O717        O  0.03995895  0.13013091  0.87286930    -0.39720
O718        O  0.03427564  0.15355955  0.91879162    -0.39790
C719        C  0.14387308  0.05232216  0.79104013    -0.12070
C720        C  0.15985200  0.06386898  0.77205416     0.04940
C721        C  0.16991234  0.10195190  0.77594786    -0.07350
C722        C  0.16465754  0.12673264  0.79945822    -0.08100
C723        C  0.14833337  0.11517206  0.81778535    -0.02650
C724        C  0.13782469  0.07746837  0.81370386     0.04170
N725        N  0.12169734  0.06396514  0.83292587     0.66670
H726        H  0.13623587  0.02325059  0.78854625     0.15570
H727        H  0.17203059  0.15596793  0.80189434     0.15280
N728        N  0.18438729  0.11658026  0.75533683     0.74380
O729        O  0.10346878  0.03741209  0.81975601    -0.39070
O730        O  0.12770687  0.07557572  0.86469342    -0.39010
O731        O  0.17090234  0.11808755  0.72109050    -0.39720
O732        O  0.20753436  0.13547584  0.77118865    -0.39790
C733        C  0.06590194  0.34055188  0.78292072    -0.12070
C734        C  0.08903731  0.36646483  0.79694877     0.04940
C735        C  0.11773191  0.35317550  0.81715402    -0.07350
C736        C  0.12252019  0.31399435  0.82254337    -0.08100
C737        C  0.09933089  0.28789954  0.81010702    -0.02650
C738        C  0.07067121  0.30119846  0.78902776     0.04170
N739        N  0.04646287  0.27544144  0.77353698     0.66670
H740        H  0.04397963  0.35118429  0.76722011     0.15570
H741        H  0.14443020  0.30419312  0.83968538     0.15280
N742        N  0.14179568  0.37884843  0.83504850     0.74380
O743        O  0.02104042  0.28667877  0.76666760    -0.39070
O744        O  0.04977859  0.24302947  0.76244265    -0.39010
O745        O  0.13844302  0.40907291  0.84959129    -0.39720
O746        O  0.16731275  0.36859160  0.84132779    -0.39790
C747        C  0.18040490  0.30109234  0.94917572    -0.12070
C748        C  0.15253592  0.28682321  0.94101130     0.04940
C749        C  0.13193034  0.31102521  0.94538938    -0.07350
C750        C  0.13880884  0.34927453  0.95454633    -0.08100
C751        C  0.16574178  0.36411881  0.95975777    -0.02650
C752        C  0.18749232  0.33948510  0.95877137     0.04170
N753        N  0.21656423  0.35268652  0.96727717     0.66670
H754        H  0.19639530  0.28253449  0.94651307     0.15570
H755        H  0.12238534  0.36806939  0.95594715     0.15280
N756        N  0.10349682  0.29788583  0.93911519     0.74380
O757        O  0.23332826  0.33300133  0.95851950    -0.39070
O758        O  0.22690292  0.38141629  0.98733006    -0.39010
O759        O  0.10087754  0.26880020  0.95556384    -0.39720
O760        O  0.08133708  0.31810988  0.92119310    -0.39790
In761      In  0.62452160  0.19411990  0.37394635     1.36870
C762        C  0.60594774  0.24950264  0.32652272     0.77780
O763        O  0.61744989  0.23985307  0.40615099    -0.60660
O764        O  0.66122458  0.22828816  0.41536121    -0.51570
C765        C  0.60927621  0.14491509  0.41129507     0.70450
O766        O  0.59059069  0.16278281  0.38417253    -0.46430
C767        C  0.64014714  0.14386256  0.33802105     0.75150
O768        O  0.58827010  0.23025694  0.33420911    -0.58290
O769        O  0.65873396  0.16396903  0.36318305    -0.48380
O770        O  0.63153608  0.23632556  0.33890493    -0.54720
C771        C  0.64376440  0.24996099  0.42144036     0.85330
O772        O  0.63549734  0.15312689  0.41914966    -0.56620
O773        O  0.61379157  0.15009597  0.33112117    -0.59910
In774      In  0.67763095  0.98417281  0.20945071     1.36870
C775        C  0.67601550  0.90915346  0.20254450     0.77780
O776        O  0.63100800  0.99093685  0.16946371    -0.60660
O777        O  0.66361392  0.00248922  0.15139644    -0.51570
C778        C  0.66634625  0.03521715  0.24966280     0.70450
O779        O  0.65895663  0.00063453  0.24810563    -0.46430
C780        C  0.73484167  0.98531161  0.24187291     0.75150
O781        O  0.66682596  0.92584122  0.22314832    -0.58290
O782        O  0.72045962  0.00208237  0.21184245    -0.48380
O783        O  0.68496276  0.93120578  0.18528639    -0.54720
C784        C  0.63680749  0.99915765  0.14327389     0.85330
O785        O  0.67978229  0.04309733  0.23082595    -0.56620
O786        O  0.71989065  0.96971044  0.25591558    -0.59910
In787      In  0.57303454  0.98496891  0.03993636     1.36870
C788        C  0.57693502  0.91079393  0.05076845     0.77780
O789        O  0.61980252  0.99128409  0.07940859    -0.60660
O790        O  0.58747088  0.00419176  0.09775786    -0.51570
C791        C  0.58455888  0.03480467  0.99950849     0.70450
O792        O  0.59280675  0.00044510  0.00227255    -0.46430
C793        C  0.51573134  0.98559401  0.00884361     0.75150
O794        O  0.58233390  0.92563160  0.02602838    -0.58290
O795        O  0.53040462  0.00368728  0.03795366    -0.48380
O796        O  0.56934036  0.93388976  0.06869102    -0.54720
C797        C  0.61420311  0.99974263  0.10574599     0.85330
O798        O  0.57000925  0.04330051  0.01689879    -0.56620
O799        O  0.53040772  0.96871770  0.49498754    -0.59910
In800      In  0.87376867  0.77255490  0.12522088     1.36870
C801        C  0.84084024  0.71741053  0.08438905     0.77780
O802        O  0.86281016  0.81357961  0.07964050    -0.60660
O803        O  0.90748576  0.80443450  0.11473197    -0.51570
C804        C  0.86078417  0.82234523  0.16452133     0.70450
O805        O  0.84212214  0.81084367  0.13391652    -0.46430
C806        C  0.90555544  0.71603109  0.16532354     0.75150
O807        O  0.83483408  0.73446794  0.10758722    -0.58290
O808        O  0.91242363  0.73377501  0.14325402    -0.48380
O809        O  0.86031798  0.73293853  0.07790515    -0.54720
C810        C  0.88892485  0.82215948  0.08757685     0.85330
O811        O  0.88580093  0.80768633  0.17529203    -0.56620
O812        O  0.88547703  0.73139936  0.17093658    -0.59910
In813      In  0.82391750  0.98416850  0.29143360     1.36870
C814        C  0.82875737  0.05854804  0.30197022     0.77780
O815        O  0.78159640  0.99930879  0.24522069    -0.60660
O816        O  0.78096172  0.96678461  0.28908280    -0.51570
C817        C  0.83478954  0.93241298  0.25163746     0.70450
O818        O  0.83736411  0.96775418  0.24773944    -0.46430
C819        C  0.86438034  0.96954901  0.35754973     0.75150
O820        O  0.83804143  0.04214701  0.28128670    -0.58290
O821        O  0.83755159  0.96552873  0.34907437    -0.48380
O822        O  0.81702826  0.03675801  0.31617139    -0.54720
C823        C  0.76660402  0.98371445  0.25917634     0.85330
O824        O  0.82655686  0.92402192  0.27577536    -0.56620
O825        O  0.87046808  0.97812405  0.33161750    -0.59910
In826      In  0.92659203  0.98422200  0.46164446     1.36870
C827        C  0.92216080  0.05913394  0.45337737     0.77780
O828        O  0.96930233  0.00050868  0.00645372    -0.60660
O829        O  0.96924401  0.96617340  0.46313023    -0.51570
C830        C  0.91455836  0.93334493  0.00095490     0.70450
O831        O  0.90516843  0.96720427  0.99720137    -0.46430
C832        C  0.88658547  0.96927607  0.39524583     0.75150
O833        O  0.91820129  0.04267502  0.47848050    -0.58290
O834        O  0.91349730  0.96616142  0.40378684    -0.48380
O835        O  0.92791066  0.03690006  0.43312187    -0.54720
C836        C  0.98395089  0.98402356  0.49236132     0.85330
O837        O  0.93051622  0.92588229  0.48519848    -0.56620
O838        O  0.88030055  0.97660080  0.42125792    -0.59910
In839      In  0.87383539  0.27401178  0.37526743     1.36870
C840        C  0.90570251  0.21797580  0.41628571     0.77780
O841        O  0.88418897  0.31263206  0.42268844    -0.60660
O842        O  0.83979416  0.30768732  0.38367892    -0.51570
C843        C  0.88917461  0.32354590  0.33812081     0.70450
O844        O  0.90741845  0.30885779  0.36746896    -0.46430
C845        C  0.84259132  0.21820273  0.33367405     0.75150
O846        O  0.91286436  0.23580918  0.39457623    -0.58290
O847        O  0.83508721  0.23546825  0.35549868    -0.48380
O848        O  0.88537096  0.23318447  0.42142587    -0.54720
C849        C  0.85804571  0.32262018  0.41284746     0.85330
O850        O  0.86328721  0.31222852  0.32752471    -0.56620
O851        O  0.86299878  0.23362155  0.32902566    -0.59910
In852      In  0.92685526  0.48203656  0.20991212     1.36870
C853        C  0.92266445  0.55701224  0.20181342     0.77780
O854        O  0.96992785  0.49581597  0.25535762    -0.60660
O855        O  0.96953673  0.46307539  0.21112056    -0.51570
C856        C  0.91435374  0.43193435  0.24948515     0.70450
O857        O  0.91116165  0.46740420  0.25183386    -0.46430
C858        C  0.88531072  0.46878212  0.14386491     0.75150
O859        O  0.91654989  0.54016054  0.22502660    -0.58290
O860        O  0.91201847  0.46489190  0.15144375    -0.48380
O861        O  0.93057975  0.53514445  0.18325957    -0.54720
C862        C  0.98447168  0.47972763  0.24097396     0.85330
O863        O  0.92439675  0.42233684  0.22726058    -0.56620
O864        O  0.87993447  0.47646291  0.17055803    -0.59910
In865      In  0.82081990  0.48362544  0.04066020     1.36870
C866        C  0.82553242  0.55809117  0.05131715     0.77780
O867        O  0.77752911  0.49764181  0.49544377    -0.60660
O868        O  0.77852020  0.46406227  0.03948926    -0.51570
C869        C  0.83252701  0.43427142  0.49934842     0.70450
O870        O  0.83481202  0.46987268  0.99692537    -0.46430
C871        C  0.86239771  0.46910831  0.10646842     0.75150
O872        O  0.83350704  0.54200635  0.02927328    -0.58290
O873        O  0.83570442  0.46520691  0.09881088    -0.48380
O874        O  0.81481060  0.53606861  0.06656871    -0.54720
C875        C  0.76329712  0.48091907  0.00982577     0.85330
O876        O  0.82388857  0.42430089  0.02279968    -0.56620
O877        O  0.86775238  0.47737385  0.07991520    -0.59910
In878      In  0.62075940  0.69627104  0.12341772     1.36870
C879        C  0.58716132  0.75196883  0.08461820     0.77780
O880        O  0.63587786  0.73602987  0.17073699    -0.60660
O881        O  0.65964203  0.73436229  0.13907088    -0.51570
C882        C  0.60784380  0.64614962  0.16274198     0.70450
O883        O  0.58865868  0.66398716  0.13632782    -0.46430
C884        C  0.63328000  0.64831042  0.08200820     0.75150
O885        O  0.58394633  0.73710385  0.11075785    -0.58290
O886        O  0.65274406  0.66563356  0.10863368    -0.48380
O887        O  0.60353844  0.73379870  0.07424186    -0.54720
C888        C  0.65462732  0.75165750  0.16291467     0.85330
O889        O  0.63370697  0.65450387  0.16902612    -0.56620
O890        O  0.60756254  0.65576682  0.07706373    -0.59910
In891      In  0.57389567  0.48158915  0.28938154     1.36870
C892        C  0.58263046  0.40729441  0.29233004     0.77780
O893        O  0.61939477  0.49191520  0.33162600    -0.60660
O894        O  0.58536725  0.49418597  0.34832510    -0.51570
C895        C  0.58443345  0.53510971  0.25104024     0.70450
O896        O  0.59321119  0.50124786  0.25245063    -0.46430
C897        C  0.51633865  0.48095491  0.25781002     0.75150
O898        O  0.59197715  0.42898981  0.27510300    -0.58290
O899        O  0.53086046  0.49735272  0.28792665    -0.48380
O900        O  0.56832149  0.42343451  0.30695048    -0.54720
C901        C  0.61241411  0.49480178  0.35752277     0.85330
O902        O  0.56971391  0.54148812  0.26863425    -0.56620
O903        O  0.53126475  0.46593494  0.24329854    -0.59910
In904      In  0.67388734  0.48078807  0.46294085     1.36870
C905        C  0.66895855  0.40577531  0.46171890     0.77780
O906        O  0.62763733  0.48776833  0.42124853    -0.60660
O907        O  0.66124483  0.49665480  0.40453431    -0.51570
C908        C  0.66286973  0.53370728  0.50169879     0.70450
O909        O  0.65338557  0.50014660  0.99885659    -0.46430
C910        C  0.73144033  0.48156385  0.49334377     0.75150
O911        O  0.66120770  0.42649394  0.48136635    -0.58290
O912        O  0.71633741  0.49723570  0.46299248    -0.48380
O913        O  0.67875430  0.42353397  0.44262609    -0.54720
C914        C  0.63426044  0.49434297  0.39547230     0.85330
O915        O  0.67808754  0.54019121  0.48482069    -0.56620
O916        O  0.71709492  0.46662752  0.00854886    -0.59910
C917        C  0.66967542  0.61433895  0.06699522    -0.12070
C918        C  0.64029049  0.62076415  0.05922618     0.04940
C919        C  0.61855932  0.59903515  0.03148151    -0.07350
C920        C  0.62680976  0.56986335  0.01436754    -0.08100
C921        C  0.65610712  0.56324577  0.02253411    -0.02650
C922        C  0.67791549  0.58607186  0.04882203     0.04170
N923        N  0.70838152  0.58016401  0.05843077     0.66670
H924        H  0.68649702  0.63083665  0.08806885     0.15570
H925        H  0.61007989  0.55318994  0.49331361     0.15280
N926        N  0.58811276  0.60675929  0.01945079     0.74380
O927        O  0.72597711  0.60761725  0.06984002    -0.39070
O928        O  0.71834855  0.54705616  0.05924093    -0.39010
O929        O  0.57806439  0.63914338  0.00671107    -0.39720
O930        O  0.57064118  0.57961433  0.01451288    -0.39790
C931        C  0.62432882  0.59894474  0.21300972    -0.12070
C932        C  0.60103365  0.61781494  0.18494958     0.04940
C933        C  0.57223682  0.60998754  0.17984277    -0.07350
C934        C  0.56763506  0.58423020  0.20305506    -0.08100
C935        C  0.59090962  0.56489820  0.23034192    -0.02650
C936        C  0.61971190  0.57264894  0.23583762     0.04170
N937        N  0.64444982  0.55528078  0.26506238     0.66670
H938        H  0.64649928  0.60513670  0.21764204     0.15570
H939        H  0.54551794  0.57789187  0.19863692     0.15280
N940        N  0.54736496  0.62677758  0.15076135     0.74380
O941        O  0.66802019  0.55079706  0.26232106    -0.39070
O942        O  0.64408237  0.54874619  0.29528985    -0.39010
O943        O  0.54212711  0.61925812  0.11823324    -0.39720
O944        O  0.52759227  0.64173822  0.15734552    -0.39790
C945        C  0.83475072  0.36718828  0.48084892    -0.12070
C946        C  0.83920643  0.40607256  0.47671866     0.04940
C947        C  0.84932177  0.41681319  0.45075416    -0.07350
C948        C  0.85416597  0.38885397  0.42943778    -0.08100
C949        C  0.84973908  0.35026473  0.43373681    -0.02650
C950        C  0.83997880  0.33898268  0.45984549     0.04170
N951        N  0.83591185  0.29946782  0.46611651     0.66670
H952        H  0.82696969  0.35862345  0.50057359     0.15570
H953        H  0.86232324  0.39725508  0.40999410     0.15280
N954        N  0.85564431  0.45562043  0.44623318     0.74380
O955        O  0.83686196  0.28913458  0.49625731    -0.39070
O956        O  0.82961763  0.27505739  0.44113187    -0.39010
O957        O  0.87586743  0.47266071  0.47209308    -0.39720
O958        O  0.84550599  0.46992083  0.41474881    -0.39790
C959        C  0.89189310  0.34127514  0.28134855    -0.12070
C960        C  0.89726002  0.35116531  0.31699335     0.04940
C961        C  0.90747030  0.38809648  0.33010506    -0.07350
C962        C  0.91212184  0.41403358  0.30697041    -0.08100
C963        C  0.90726958  0.40394058  0.27148747    -0.02650
C964        C  0.89664455  0.36715218  0.25831015     0.04170
N965        N  0.88911433  0.35620390  0.22131089     0.66670
H966        H  0.88318540  0.31334786  0.27106257     0.15570
H967        H  0.92023985  0.44219747  0.31706967     0.15280
N968        N  0.91208055  0.40043063  0.36589444     0.74380
O969        O  0.89238238  0.32211185  0.21393571    -0.39070
O970        O  0.87509302  0.37881680  0.19554177    -0.39010
O971        O  0.92374771  0.37857887  0.39294849    -0.39720
O972        O  0.90764729  0.43475400  0.37127574    -0.39790
C973        C  0.91458446  0.16662797  0.46169306    -0.12070
C974        C  0.91659661  0.17948472  0.43024499     0.04940
C975        C  0.92195898  0.15273709  0.40794609    -0.07350
C976        C  0.92369269  0.11406921  0.41652322    -0.08100
C977        C  0.92049108  0.10085449  0.44709652    -0.02650
C978        C  0.91643222  0.12770968  0.47034845     0.04170
N979        N  0.91316204  0.11622674  0.50204467     0.66670
H980        H  0.90988251  0.18677109  0.47858659     0.15570
H981        H  0.92712360  0.09410303  0.39846375     0.15280
N982        N  0.92344456  0.16378358  0.37495079     0.74380
O983        O  0.92883217  0.13131588  0.03236165    -0.39070
O984        O  0.89105975  0.09739432  0.99856064    -0.39010
O985        O  0.94384295  0.18499265  0.37636655    -0.39720
O986        O  0.90792264  0.14690891  0.34555007    -0.39790
C987        C  0.83271830  0.12499886  0.28338666    -0.12070
C988        C  0.83085191  0.09997855  0.30908366     0.04940
C989        C  0.82930402  0.11504814  0.34041725    -0.07350
C990        C  0.82922360  0.15448453  0.34493576    -0.08100
C991        C  0.83247247  0.17948541  0.32020942    -0.02650
C992        C  0.83358597  0.16468207  0.28854750     0.04170
N993        N  0.83543198  0.18938743  0.26149979     0.66670
H994        H  0.83320264  0.11356617  0.25899290     0.15570
H995        H  0.82964583  0.16549334  0.36999439     0.15280
N996        N  0.83029660  0.09097730  0.36940436     0.74380
O997        O  0.84632639  0.17744472  0.24086835    -0.39070
O998        O  0.82358155  0.22185524  0.25563172    -0.39010
O999        O  0.85015657  0.06623887  0.38287744    -0.39720
O1000       O  0.81478808  0.09880116  0.38568996    -0.39790
C1001       C  0.93021692  0.88261568  0.04763088    -0.12070
C1002       C  0.90751214  0.90451748  0.02213613     0.04940
C1003       C  0.87879351  0.89914703  0.01806539    -0.07350
C1004       C  0.87373958  0.87258760  0.04033710    -0.08100
C1005       C  0.89647307  0.85092336  0.06637588    -0.02650
C1006       C  0.92518570  0.85645225  0.07023222     0.04170
N1007       N  0.94953435  0.83633596  0.09701762     0.66670
H1008       H  0.95230775  0.88688135  0.05092454     0.15570
H1009       H  0.85157720  0.86830540  0.03671155     0.15280
N1010       N  0.85441575  0.91886466  0.49048367     0.74380
O1011       O  0.96718617  0.81951113  0.08771696    -0.39070
O1012       O  0.95688152  0.84243995  0.13035486    -0.39010
O1013       O  0.85331305  0.92418545  0.45930470    -0.39720
O1014       O  0.83214446  0.92620828  0.49549005    -0.39790
C1015       C  0.83626687  0.91294931  0.19394557    -0.12070
C1016       C  0.84076518  0.90332843  0.22940406     0.04940
C1017       C  0.85187283  0.86681931  0.24315850    -0.07350
C1018       C  0.85895503  0.84145495  0.22166246    -0.08100
C1019       C  0.85406148  0.85095133  0.18614455    -0.02650
C1020       C  0.84259055  0.88716237  0.17194807     0.04170
N1021       N  0.83821073  0.89877321  0.13606278     0.66670
H1022       H  0.82798725  0.94097037  0.18340132     0.15570
H1023       H  0.86763581  0.81361189  0.23245624     0.15280
N1024       N  0.85668865  0.85516017  0.27898634     0.74380
O1025       O  0.81875229  0.92292615  0.11860956    -0.39070
O1026       O  0.85568869  0.88836419  0.12333461    -0.39010
O1027       O  0.83513597  0.84888345  0.28571140    -0.39720
O1028       O  0.88142524  0.84275447  0.30071725    -0.39790
C1029       C  0.82715632  0.62495861  0.03207607    -0.12070
C1030       C  0.82818660  0.59937920  0.05901507     0.04940
C1031       C  0.83019197  0.61370505  0.09247142    -0.07350
C1032       C  0.83032196  0.65305473  0.09770394    -0.08100
C1033       C  0.83044779  0.67866180  0.07144195    -0.02650
C1034       C  0.82836200  0.66456010  0.03788902     0.04170
N1035       N  0.82723228  0.68988163  0.00957492     0.66670
H1036       H  0.82507351  0.61401181  0.00624168     0.15570
H1037       H  0.83339906  0.66359404  0.12410775     0.15280
N1038       N  0.83469623  0.58899394  0.12255342     0.74380
O1039       O  0.83499681  0.67844419  0.48573610    -0.39070
O1040       O  0.81585338  0.72249074  0.00614528    -0.39010
O1041       O  0.85402625  0.56338793  0.13179090    -0.39720
O1042       O  0.82316031  0.59685541  0.14359967    -0.39790
C1043       C  0.91257609  0.66397058  0.20942798    -0.12070
C1044       C  0.91662193  0.67760698  0.17955117     0.04940
C1045       C  0.92435014  0.65155958  0.15875560    -0.07350
C1046       C  0.92630899  0.61276532  0.16706050    -0.08100
C1047       C  0.92089160  0.59878366  0.19581205    -0.02650
C1048       C  0.91440964  0.62497114  0.21762883     0.04170
N1049       N  0.90848520  0.61267974  0.24720400     0.66670
H1050       H  0.90613090  0.68350372  0.22521615     0.15570
H1051       H  0.93161169  0.59329336  0.15016822     0.15280
N1052       N  0.92817099  0.66339253  0.12747517     0.74380
O1053       O  0.92219030  0.62741726  0.27824412    -0.39070
O1054       O  0.88580484  0.59365467  0.24074427    -0.39010
O1055       O  0.94868750  0.68563544  0.13128556    -0.39720
O1056       O  0.91451223  0.64665590  0.09741968    -0.39790
C1057       C  0.57079661  0.84323227  0.03033462    -0.12070
C1058       C  0.57903565  0.86973069  0.05883599     0.04940
C1059       C  0.58690719  0.85687672  0.09472654    -0.07350
C1060       C  0.58542861  0.81807220  0.10099665    -0.08100
C1061       C  0.57819852  0.79135507  0.07288537    -0.02650
C1062       C  0.57037219  0.80393003  0.03692557     0.04170
N1063       N  0.56154980  0.77747390  0.00704641     0.66670
H1064       H  0.56416932  0.85331648  0.00281863     0.15570
H1065       H  0.59289869  0.80834950  0.12881008     0.15280
N1066       N  0.59869087  0.88227010  0.12543678     0.74380
O1067       O  0.56233128  0.78697413  0.97763940    -0.39070
O1068       O  0.55029785  0.74595675  0.00854918    -0.39010
O1069       O  0.59439063  0.87605052  0.15320234    -0.39720
O1070       O  0.61710026  0.90712646  0.12725605    -0.39790
C1071       C  0.66522132  0.80270474  0.20910175    -0.12070
C1072       C  0.66634402  0.78976385  0.17709849     0.04940
C1073       C  0.67407151  0.81564699  0.15627808    -0.07350
C1074       C  0.67887847  0.85380638  0.16678186    -0.08100
C1075       C  0.67565591  0.86736779  0.19725612    -0.02650
C1076       C  0.67030825  0.84105688  0.21982706     0.04170
N1077       N  0.67032689  0.85247085  0.25367555     0.66670
H1078       H  0.65987175  0.78288679  0.22559303     0.15570
H1079       H  0.68322797  0.87349416  0.14930494     0.15280
N1080       N  0.67435038  0.80489628  0.12251164     0.74380
O1081       O  0.65301652  0.83710674  0.26431585    -0.39070
O1082       O  0.69067188  0.87297243  0.27562066    -0.39010
O1083       O  0.65072331  0.79666731  0.09562189    -0.39720
O1084       O  0.69642819  0.81224548  0.11719062    -0.39790
C1085       C  0.62426700  0.09266440  0.45662849    -0.12070
C1086       C  0.60180863  0.11624085  0.43261795     0.04940
C1087       C  0.57365218  0.11284039  0.43115789    -0.07350
C1088       C  0.56892999  0.08682352  0.45411509    -0.08100
C1089       C  0.59134505  0.06309701  0.47765590    -0.02650
C1090       C  0.61951008  0.06631718  0.47928705     0.04170
N1091       N  0.64376305  0.04467020  0.00489250     0.66670
H1092       H  0.64604468  0.09529927  0.45840273     0.15570
H1093       H  0.54725245  0.08426013  0.45271985     0.15280
N1094       N  0.54961374  0.13528990  0.40673046     0.74380
O1095       O  0.66450786  0.03553180  0.99734256    -0.39070
O1096       O  0.64657114  0.03934415  0.03685796    -0.39010
O1097       O  0.53995899  0.13013151  0.37286926    -0.39720
O1098       O  0.53427567  0.15356027  0.41879153    -0.39790
C1099       C  0.64387314  0.05232242  0.29104026    -0.12070
C1100       C  0.65985204  0.06386918  0.27205424     0.04940
C1101       C  0.66991239  0.10195209  0.27594789    -0.07350
C1102       C  0.66465761  0.12673289  0.29945823    -0.08100
C1103       C  0.64833345  0.11517238  0.31778540    -0.02650
C1104       C  0.63782477  0.07746869  0.31370397     0.04170
N1105       N  0.62169743  0.06396551  0.33292602     0.66670
H1106       H  0.63623592  0.02325086  0.28854642     0.15570
H1107       H  0.67203067  0.15596817  0.30189430     0.15280
N1108       N  0.68438733  0.11658039  0.25533682     0.74380
O1109       O  0.60346888  0.03741245  0.31975622    -0.39070
O1110       O  0.62770697  0.07557617  0.36469356    -0.39010
O1111       O  0.67090236  0.11808766  0.22109049    -0.39720
O1112       O  0.70753442  0.13547595  0.27118861    -0.39790
C1113       C  0.56590213  0.34055234  0.28292073    -0.12070
C1114       C  0.58903749  0.36646530  0.29694885     0.04940
C1115       C  0.61773209  0.35317598  0.31715409    -0.07350
C1116       C  0.62252039  0.31399482  0.32254337    -0.08100
C1117       C  0.59933110  0.28790000  0.31010696    -0.02650
C1118       C  0.57067142  0.30119891  0.28902768     0.04170
N1119       N  0.54646309  0.27544188  0.27353682     0.66670
H1120       H  0.54397982  0.35118474  0.26722012     0.15570
H1121       H  0.64443040  0.30419359  0.33968538     0.15280
N1122       N  0.64179585  0.37884891  0.33504862     0.74380
O1123       O  0.52104063  0.28667916  0.26666743    -0.39070
O1124       O  0.54977884  0.24302995  0.26244243    -0.39010
O1125       O  0.63844317  0.40907339  0.34959139    -0.39720
O1126       O  0.66731293  0.36859210  0.34132793    -0.39790
C1127       C  0.68040481  0.30109288  0.44917578    -0.12070
C1128       C  0.65253583  0.28682372  0.44101125     0.04940
C1129       C  0.63193021  0.31102568  0.44538930    -0.07350
C1130       C  0.63880868  0.34927499  0.45454630    -0.08100
C1131       C  0.66574164  0.36411931  0.45975783    -0.02650
C1132       C  0.68749223  0.33948564  0.45877148     0.04170
N1133       N  0.71656416  0.35268706  0.46727739     0.66670
H1134       H  0.69639524  0.28253504  0.44651315     0.15570
H1135       H  0.62238516  0.36806983  0.45594709     0.15280
N1136       N  0.60349669  0.29788625  0.43911504     0.74380
O1137       O  0.73332838  0.33300161  0.45852026    -0.39070
O1138       O  0.72690268  0.38141714  0.48732988    -0.39010
O1139       O  0.60087740  0.26880056  0.45556361    -0.39720
O1140       O  0.58133695  0.31811032  0.42119299    -0.39790
In1141     In  0.62452161  0.19411993  0.87394632     1.36870
C1142       C  0.60594774  0.24950266  0.82652268     0.77780
O1143       O  0.61744991  0.23985311  0.90615096    -0.60660
O1144       O  0.66122460  0.22828819  0.91536117    -0.51570
C1145       C  0.60927622  0.14491514  0.91129505     0.70450
O1146       O  0.59059070  0.16278284  0.88417251    -0.46430
C1147       C  0.64014716  0.14386257  0.83802104     0.75150
O1148       O  0.58827010  0.23025696  0.83420907    -0.58290
O1149       O  0.65873398  0.16396906  0.86318303    -0.48380
O1150       O  0.63153608  0.23632559  0.83890489    -0.54720
C1151       C  0.64376441  0.24996103  0.92144032     0.85330
O1152       O  0.63549735  0.15312694  0.91914964    -0.56620
O1153       O  0.61379159  0.15009598  0.83112115    -0.59910
In1154     In  0.67763093  0.98417279  0.70945070     1.36870
C1155       C  0.67601545  0.90915344  0.70254445     0.77780
O1156       O  0.63100798  0.99093683  0.66946371    -0.60660
O1157       O  0.66361389  0.00248919  0.65139642    -0.51570
C1158       C  0.66634626  0.03521714  0.74966280     0.70450
O1159       O  0.65895663  0.00063451  0.74810564    -0.46430
C1160       C  0.73484165  0.98531156  0.74187287     0.75150
O1161       O  0.66682593  0.92584119  0.72314830    -0.58290
O1162       O  0.72045960  0.00208233  0.71184242    -0.48380
O1163       O  0.68496271  0.93120576  0.68528634    -0.54720
C1164       C  0.63680746  0.99915761  0.64327389     0.85330
O1165       O  0.67978228  0.04309730  0.73082593    -0.56620
O1166       O  0.71989063  0.96971038  0.75591554    -0.59910
In1167     In  0.57303450  0.98496887  0.53993635     1.36870
C1168       C  0.57693494  0.91079389  0.55076845     0.77780
O1169       O  0.61980249  0.99128403  0.57940858    -0.60660
O1170       O  0.58747085  0.00419173  0.59775785    -0.51570
C1171       C  0.58455886  0.03480462  0.49950849     0.70450
O1172       O  0.59280671  0.00044504  0.50227254    -0.46430
C1173       C  0.51573130  0.98559401  0.50884357     0.75150
O1174       O  0.58233386  0.92563155  0.52602840    -0.58290
O1175       O  0.53040457  0.00368726  0.53795363    -0.48380
O1176       O  0.56934027  0.93388973  0.56869100    -0.54720
C1177       C  0.61420307  0.99974258  0.60574599     0.85330
O1178       O  0.57000924  0.04330047  0.51689880    -0.56620
O1179       O  0.53040776  0.96871771  0.99498757    -0.59910
In1180     In  0.87376873  0.77255482  0.62522090     1.36870
C1181       C  0.84084029  0.71741049  0.58438905     0.77780
O1182       O  0.86281021  0.81357954  0.57964052    -0.60660
O1183       O  0.90748581  0.80443446  0.61473199    -0.51570
C1184       C  0.86078423  0.82234514  0.66452135     0.70450
O1185       O  0.84212220  0.81084357  0.63391655    -0.46430
C1186       C  0.90555548  0.71603097  0.66532355     0.75150
O1187       O  0.83483411  0.73446791  0.60758721    -0.58290
O1188       O  0.91242367  0.73377488  0.64325403    -0.48380
O1189       O  0.86031805  0.73293844  0.57790517    -0.54720
C1190       C  0.88892489  0.82215944  0.58757688     0.85330
O1191       O  0.88580100  0.80768625  0.67529205    -0.56620
O1192       O  0.88547708  0.73139927  0.67093659    -0.59910
In1193     In  0.82391748  0.98416841  0.79143353     1.36870
C1194       C  0.82875739  0.05854793  0.80197022     0.77780
O1195       O  0.78159638  0.99930872  0.74522063    -0.60660
O1196       O  0.78096170  0.96678452  0.78908274    -0.51570
C1197       C  0.83478953  0.93241289  0.75163740     0.70450
O1198       O  0.83736408  0.96775410  0.74773936    -0.46430
C1199       C  0.86438034  0.96954887  0.85754962     0.75150
O1200       O  0.83804141  0.04214693  0.78128665    -0.58290
O1201       O  0.83755159  0.96552859  0.84907428    -0.48380
O1202       O  0.81702829  0.03675789  0.81617140    -0.54720
C1203       C  0.76660400  0.98371438  0.75917629     0.85330
O1204       O  0.82655684  0.92402183  0.77577529    -0.56620
O1205       O  0.87046807  0.97812393  0.83161738    -0.59910
In1206     In  0.92659207  0.98422180  0.96164432     1.36870
C1207       C  0.92216091  0.05913375  0.95337730     0.77780
O1208       O  0.96930228  0.00050896  0.50645386    -0.60660
O1209       O  0.96924404  0.96617313  0.96313006    -0.51570
C1210       C  0.91455834  0.93334508  0.50095503     0.70450
O1211       O  0.90516839  0.96720441  0.49720150    -0.46430
C1212       C  0.88658549  0.96927591  0.89524571     0.75150
O1213       O  0.91820139  0.04267481  0.97848041    -0.58290
O1214       O  0.91349731  0.96616125  0.90378669    -0.48380
O1215       O  0.92791075  0.03689987  0.93312177    -0.54720
C1216       C  0.98395093  0.98402325  0.99236117     0.85330
O1217       O  0.93051623  0.92588209  0.98519835    -0.56620
O1218       O  0.88030058  0.97660063  0.92125781    -0.59910
In1219     In  0.87383551  0.27401164  0.87526758     1.36870
C1220       C  0.90570267  0.21797564  0.91628579     0.77780
O1221       O  0.88418909  0.31263193  0.92268860    -0.60660
O1222       O  0.83979428  0.30768716  0.88367910    -0.51570
C1223       C  0.88917469  0.32354579  0.83812093     0.70450
O1224       O  0.90741854  0.30885770  0.86746909    -0.46430
C1225       C  0.84259142  0.21820260  0.83367421     0.75150
O1226       O  0.91286448  0.23580904  0.89457628    -0.58290
O1227       O  0.83508735  0.23546809  0.85549890    -0.48380
O1228       O  0.88537116  0.23318432  0.92142603    -0.54720
C1229       C  0.85804583  0.32262004  0.91284762     0.85330
O1230       O  0.86328731  0.31222837  0.82752485    -0.56620
O1231       O  0.86299884  0.23362145  0.82902577    -0.59910
In1232     In  0.92685530  0.48203642  0.70991215     1.36870
C1233       C  0.92266450  0.55701211  0.70181346     0.77780
O1234       O  0.96992794  0.49581574  0.75535758    -0.60660
O1235       O  0.96953671  0.46307519  0.71112045    -0.51570
C1236       C  0.91435378  0.43193423  0.74948521     0.70450
O1237       O  0.91116173  0.46740409  0.75183395    -0.46430
C1238       C  0.88531071  0.46878201  0.64386495     0.75150
O1239       O  0.91654998  0.54016041  0.72502668    -0.58290
O1240       O  0.91201846  0.46489176  0.65144377    -0.48380
O1241       O  0.93057975  0.53514432  0.68325958    -0.54720
C1242       C  0.98447172  0.47972738  0.74097384     0.85330
O1243       O  0.92439674  0.42233670  0.72726060    -0.56620
O1244       O  0.87993449  0.47646281  0.67055809    -0.59910
In1245     In  0.82081989  0.48362540  0.54066025     1.36870
C1246       C  0.82553242  0.55809113  0.55131720     0.77780
O1247       O  0.77752912  0.49764182  0.99544371    -0.60660
O1248       O  0.77852019  0.46406222  0.53948930    -0.51570
C1249       C  0.83252705  0.43427140  0.99934842     0.70450
O1250       O  0.83481199  0.46987270  0.49692540    -0.46430
C1251       C  0.86239770  0.46910823  0.60646847     0.75150
O1252       O  0.83350706  0.54200630  0.52927334    -0.58290
O1253       O  0.83570440  0.46520687  0.59881094    -0.48380
O1254       O  0.81481060  0.53606858  0.56656876    -0.54720
C1255       C  0.76329711  0.48091904  0.50982582     0.85330
O1256       O  0.82388854  0.42430088  0.52279968    -0.56620
O1257       O  0.86775237  0.47737375  0.57991524    -0.59910
In1258     In  0.62075930  0.69627101  0.62341764     1.36870
C1259       C  0.58716119  0.75196878  0.58461812     0.77780
O1260       O  0.63587777  0.73602985  0.67073691    -0.60660
O1261       O  0.65964191  0.73436229  0.63907077    -0.51570
C1262       C  0.60784373  0.64614960  0.66274192     0.70450
O1263       O  0.58865860  0.66398712  0.63632776    -0.46430
C1264       C  0.63327992  0.64831039  0.58200814     0.75150
O1265       O  0.58394622  0.73710378  0.61075777    -0.58290
O1266       O  0.65274397  0.66563354  0.60863362    -0.48380
O1267       O  0.60353833  0.73379866  0.57424178    -0.54720
C1268       C  0.65462722  0.75165750  0.66291456     0.85330
O1269       O  0.63370689  0.65450387  0.66902606    -0.56620
O1270       O  0.60756246  0.65576678  0.57706367    -0.59910
In1271     In  0.57389564  0.48158916  0.78938153     1.36870
C1272       C  0.58263042  0.40729443  0.79233002     0.77780
O1273       O  0.61939473  0.49191524  0.83162599    -0.60660
O1274       O  0.58536722  0.49418596  0.84832510    -0.51570
C1275       C  0.58443342  0.53510972  0.75104024     0.70450
O1276       O  0.59321115  0.50124787  0.75245062    -0.46430
C1277       C  0.51633861  0.48095494  0.75780996     0.75150
O1278       O  0.59197714  0.42898984  0.77510301    -0.58290
O1279       O  0.53086041  0.49735273  0.78792660    -0.48380
O1280       O  0.56832143  0.42343451  0.80695044    -0.54720
C1281       C  0.61241408  0.49480179  0.85752277     0.85330
O1282       O  0.56971389  0.54148814  0.76863426    -0.56620
O1283       O  0.53126473  0.46593497  0.74329850    -0.59910
In1284     In  0.67388735  0.48078811  0.96294083     1.36870
C1285       C  0.66895856  0.40577535  0.96171889     0.77780
O1286       O  0.62763732  0.48776833  0.92124853    -0.60660
O1287       O  0.66124480  0.49665485  0.90453428    -0.51570
C1288       C  0.66286975  0.53370731  0.00169880     0.70450
O1289       O  0.65338553  0.50014657  0.49885657    -0.46430
C1290       C  0.73144034  0.48156388  0.99334373     0.75150
O1291       O  0.66120770  0.42649397  0.98136633    -0.58290
O1292       O  0.71633741  0.49723572  0.96299244    -0.48380
O1293       O  0.67875431  0.42353400  0.94262608    -0.54720
C1294       C  0.63426042  0.49434299  0.89547229     0.85330
O1295       O  0.67808754  0.54019125  0.98482067    -0.56620
O1296       O  0.71709491  0.46662748  0.50854889    -0.59910
C1297       C  0.66967536  0.61433891  0.56699520    -0.12070
C1298       C  0.64029043  0.62076411  0.55922613     0.04940
C1299       C  0.61855926  0.59903512  0.53148146    -0.07350
C1300       C  0.62680972  0.56986332  0.51436751    -0.08100
C1301       C  0.65610708  0.56324573  0.52253409    -0.02650
C1302       C  0.67791544  0.58607183  0.54882202     0.04170
N1303       N  0.70838148  0.58016398  0.55843078     0.66670
H1304       H  0.68649696  0.63083663  0.58806882     0.15570
H1305       H  0.61007992  0.55318998  0.99331365     0.15280
N1306       N  0.58811270  0.60675926  0.51945072     0.74380
O1307       O  0.72597706  0.60761722  0.56984003    -0.39070
O1308       O  0.71834851  0.54705613  0.55924096    -0.39010
O1309       O  0.57806434  0.63914334  0.50671100    -0.39720
O1310       O  0.57064112  0.57961429  0.51451278    -0.39790
C1311       C  0.62432876  0.59894475  0.71300970    -0.12070
C1312       C  0.60103359  0.61781493  0.68494954     0.04940
C1313       C  0.57223676  0.60998752  0.67984274    -0.07350
C1314       C  0.56763501  0.58423018  0.70305504    -0.08100
C1315       C  0.59090958  0.56489821  0.73034191    -0.02650
C1316       C  0.61971185  0.57264896  0.73583760     0.04170
N1317       N  0.64444978  0.55528083  0.76506238     0.66670
H1318       H  0.64649923  0.60513673  0.71764201     0.15570
H1319       H  0.54551789  0.57789185  0.69863691     0.15280
N1320       N  0.54736489  0.62677753  0.65076131     0.74380
O1321       O  0.66802015  0.55079712  0.76232106    -0.39070
O1322       O  0.64408233  0.54874623  0.79528984    -0.39010
O1323       O  0.54212705  0.61925805  0.61823320    -0.39720
O1324       O  0.52759220  0.64173817  0.65734546    -0.39790
C1325       C  0.83475080  0.36718823  0.98084901    -0.12070
C1326       C  0.83920649  0.40607250  0.97671871     0.04940
C1327       C  0.84932185  0.41681310  0.95075422    -0.07350
C1328       C  0.85416608  0.38885384  0.92943788    -0.08100
C1329       C  0.84973919  0.35026461  0.93373695    -0.02650
C1330       C  0.83997889  0.33898259  0.95984563     0.04170
N1331       N  0.83591195  0.29946775  0.96611669     0.66670
H1332       H  0.82696974  0.35862343  0.00057367     0.15570
H1333       H  0.86232336  0.39725493  0.90999421     0.15280
N1334       N  0.85564437  0.45562032  0.94623320     0.74380
O1335       O  0.83686201  0.28913455  0.99625748    -0.39070
O1336       O  0.82961778  0.27505727  0.94113209    -0.39010
O1337       O  0.87586748  0.47266064  0.97209308    -0.39720
O1338       O  0.84550606  0.46992068  0.91474881    -0.39790
C1339       C  0.89189314  0.34127504  0.78134865    -0.12070
C1340       C  0.89726008  0.35116520  0.81699345     0.04940
C1341       C  0.90747037  0.38809637  0.83010516    -0.07350
C1342       C  0.91212190  0.41403347  0.80697050    -0.08100
C1343       C  0.90726962  0.40394047  0.77148754    -0.02650
C1344       C  0.89664457  0.36715207  0.75831023     0.04170
N1345       N  0.88911432  0.35620380  0.72131097     0.66670
H1346       H  0.88318543  0.31334776  0.77106267     0.15570
H1347       H  0.92023992  0.44219736  0.81706975     0.15280
N1348       N  0.91208064  0.40043053  0.86589454     0.74380
O1349       O  0.89238236  0.32211174  0.71393578    -0.39070
O1350       O  0.87509299  0.37881670  0.69554186    -0.39010
O1351       O  0.92374781  0.37857878  0.89294859    -0.39720
O1352       O  0.90764738  0.43475390  0.87127584    -0.39790
C1353       C  0.91458466  0.16662778  0.96169311    -0.12070
C1354       C  0.91659677  0.17948456  0.93024503     0.04940
C1355       C  0.92195911  0.15273694  0.90794609    -0.07350
C1356       C  0.92369281  0.11406906  0.91652319    -0.08100
C1357       C  0.92049123  0.10085430  0.94709649    -0.02650
C1358       C  0.91643241  0.12770947  0.97034847     0.04170
N1359       N  0.91316227  0.11622650  0.00204470     0.66670
H1360       H  0.90988275  0.18677088  0.97858668     0.15570
H1361       H  0.92712369  0.09410289  0.89846368     0.15280
N1362       N  0.92344467  0.16378347  0.87495078     0.74380
O1363       O  0.92883187  0.13131619  0.53236160    -0.39070
O1364       O  0.89105953  0.09739451  0.49856058    -0.39010
O1365       O  0.94384305  0.18499255  0.87636654    -0.39720
O1366       O  0.90792274  0.14690882  0.84555006    -0.39790
C1367       C  0.83271833  0.12499878  0.78338672    -0.12070
C1368       C  0.83085195  0.09997843  0.80908371     0.04940
C1369       C  0.82930410  0.11504800  0.84041734    -0.07350
C1370       C  0.82922371  0.15448438  0.84493589    -0.08100
C1371       C  0.83247255  0.17948528  0.82020956    -0.02650
C1372       C  0.83358601  0.16468198  0.78854761     0.04170
N1373       N  0.83543201  0.18938737  0.76149991     0.66670
H1374       H  0.83320264  0.11356611  0.75899293     0.15570
H1375       H  0.82964597  0.16549315  0.86999455     0.15280
N1376       N  0.83029670  0.09097712  0.86940444     0.74380
O1377       O  0.84632640  0.17744469  0.74086844    -0.39070
O1378       O  0.82358158  0.22185517  0.75563186    -0.39010
O1379       O  0.85015666  0.06623868  0.88287746    -0.39720
O1380       O  0.81478820  0.09880096  0.88569007    -0.39790
C1381       C  0.93021693  0.88261582  0.54763099    -0.12070
C1382       C  0.90751213  0.90451760  0.52213623     0.04940
C1383       C  0.87879350  0.89914707  0.51806546    -0.07350
C1384       C  0.87373958  0.87258758  0.54033714    -0.08100
C1385       C  0.89647309  0.85092337  0.56637593    -0.02650
C1386       C  0.92518572  0.85645234  0.57023230     0.04170
N1387       N  0.94953439  0.83633609  0.59701772     0.66670
H1388       H  0.95230776  0.88688155  0.55092468     0.15570
H1389       H  0.85157721  0.86830533  0.53671157     0.15280
N1390       N  0.85441578  0.91886465  0.99048361     0.74380
O1391       O  0.96718624  0.81951131  0.58771707    -0.39070
O1392       O  0.95688152  0.84244004  0.63035495    -0.39010
O1393       O  0.85331305  0.92418538  0.95930462    -0.39720
O1394       O  0.83214451  0.92620836  0.99549002    -0.39790
C1395       C  0.83626687  0.91294921  0.69394552    -0.12070
C1396       C  0.84076519  0.90332834  0.72940402     0.04940
C1397       C  0.85187288  0.86681925  0.74315849    -0.07350
C1398       C  0.85895510  0.84145488  0.72166247    -0.08100
C1399       C  0.85406153  0.85095124  0.68614455    -0.02650
C1400       C  0.84259057  0.88716227  0.67194804     0.04170
N1401       N  0.83821074  0.89877308  0.63606275     0.66670
H1402       H  0.82798723  0.94097025  0.68340124     0.15570
H1403       H  0.86763590  0.81361184  0.73245628     0.15280
N1404       N  0.85668871  0.85516013  0.77898634     0.74380
O1405       O  0.81875229  0.92292599  0.61860951    -0.39070
O1406       O  0.85568872  0.88836408  0.62333458    -0.39010
O1407       O  0.83513604  0.84888339  0.78571142    -0.39720
O1408       O  0.88142532  0.84275448  0.80071726    -0.39790
C1409       C  0.82715635  0.62495855  0.53207610    -0.12070
C1410       C  0.82818662  0.59937916  0.55901511     0.04940
C1411       C  0.83019197  0.61370503  0.59247144    -0.07350
C1412       C  0.83032197  0.65305471  0.59770395    -0.08100
C1413       C  0.83044782  0.67866176  0.57144196    -0.02650
C1414       C  0.82836204  0.66456004  0.53788904     0.04170
N1415       N  0.82723233  0.68988156  0.50957494     0.66670
H1416       H  0.82507354  0.61401174  0.50624172     0.15570
H1417       H  0.83339907  0.66359403  0.62410776     0.15280
N1418       N  0.83469622  0.58899393  0.62255346     0.74380
O1419       O  0.83499677  0.67844428  0.98573608    -0.39070
O1420       O  0.81585344  0.72249068  0.50614529    -0.39010
O1421       O  0.85402624  0.56338791  0.63179094    -0.39720
O1422       O  0.82316030  0.59685542  0.64359969    -0.39790
C1423       C  0.91257610  0.66397046  0.70942798    -0.12070
C1424       C  0.91662195  0.67760686  0.67955118     0.04940
C1425       C  0.92435016  0.65155945  0.65875562    -0.07350
C1426       C  0.92630902  0.61276519  0.66706053    -0.08100
C1427       C  0.92089164  0.59878353  0.69581208    -0.02650
C1428       C  0.91440965  0.62497102  0.71762885     0.04170
N1429       N  0.90848520  0.61267963  0.74720400     0.66670
H1430       H  0.90613090  0.68350360  0.72521614     0.15570
H1431       H  0.93161173  0.59329322  0.65016827     0.15280
N1432       N  0.92817102  0.66339239  0.62747519     0.74380
O1433       O  0.92219025  0.62741719  0.77824412    -0.39070
O1434       O  0.88580486  0.59365451  0.74074427    -0.39010
O1435       O  0.94868754  0.68563529  0.63128558    -0.39720
O1436       O  0.91451225  0.64665576  0.59741970    -0.39790
C1437       C  0.57079658  0.84323224  0.53033459    -0.12070
C1438       C  0.57903554  0.86973065  0.55883597     0.04940
C1439       C  0.58690697  0.85687666  0.59472649    -0.07350
C1440       C  0.58542838  0.81807213  0.60099657    -0.08100
C1441       C  0.57819838  0.79135502  0.57288529    -0.02650
C1442       C  0.57037214  0.80393000  0.53692552     0.04170
N1443       N  0.56154984  0.77747388  0.50704635     0.66670
H1444       H  0.56416936  0.85331646  0.50281863     0.15570
H1445       H  0.59289839  0.80834941  0.62880999     0.15280
N1446       N  0.59869057  0.88227002  0.62543675     0.74380
O1447       O  0.56233144  0.78697412  0.47763941    -0.39070
O1448       O  0.55029785  0.74595673  0.50854904    -0.39010
O1449       O  0.59439022  0.87605043  0.65320222    -0.39720
O1450       O  0.61710002  0.90712636  0.62725614    -0.39790
C1451       C  0.66522126  0.80270472  0.70910167    -0.12070
C1452       C  0.66634391  0.78976385  0.67709838     0.04940
C1453       C  0.67407136  0.81564700  0.65627794    -0.07350
C1454       C  0.67887834  0.85380638  0.66678173    -0.08100
C1455       C  0.67565583  0.86736777  0.69725604    -0.02650
C1456       C  0.67030821  0.84105685  0.71982700     0.04170
N1457       N  0.67032691  0.85247080  0.75367552     0.66670
H1458       H  0.65987172  0.78288676  0.72559297     0.15570
H1459       H  0.68322781  0.87349417  0.64930480     0.15280
N1460       N  0.67435017  0.80489631  0.62251146     0.74380
O1461       O  0.65301657  0.83710667  0.76431588    -0.39070
O1462       O  0.69067191  0.87297238  0.77562060    -0.39010
O1463       O  0.65072308  0.79666732  0.59562176    -0.39720
O1464       O  0.69642794  0.81224554  0.61719038    -0.39790
C1465       C  0.62426701  0.09266445  0.95662848    -0.12070
C1466       C  0.60180864  0.11624091  0.93261794     0.04940
C1467       C  0.57365219  0.11284044  0.93115788    -0.07350
C1468       C  0.56893000  0.08682358  0.95411509    -0.08100
C1469       C  0.59134506  0.06309707  0.97765590    -0.02650
C1470       C  0.61951010  0.06631725  0.97928705     0.04170
N1471       N  0.64376303  0.04467013  0.50489249     0.66670
H1472       H  0.64604469  0.09529933  0.95840272     0.15570
H1473       H  0.54725247  0.08426018  0.95271985     0.15280
N1474       N  0.54961375  0.13528996  0.90673046     0.74380
O1475       O  0.66450784  0.03553173  0.49734256    -0.39070
O1476       O  0.64657112  0.03934406  0.53685796    -0.39010
O1477       O  0.53995899  0.13013156  0.87286926    -0.39720
O1478       O  0.53427569  0.15356034  0.91879153    -0.39790
C1479       C  0.64387316  0.05232242  0.79104026    -0.12070
C1480       C  0.65985205  0.06386917  0.77205425     0.04940
C1481       C  0.66991241  0.10195208  0.77594790    -0.07350
C1482       C  0.66465763  0.12673288  0.79945823    -0.08100
C1483       C  0.64833347  0.11517238  0.81778540    -0.02650
C1484       C  0.63782479  0.07746869  0.81370397     0.04170
N1485       N  0.62169745  0.06396553  0.83292603     0.66670
H1486       H  0.63623593  0.02325086  0.78854643     0.15570
H1487       H  0.67203070  0.15596817  0.80189430     0.15280
N1488       N  0.68438736  0.11658036  0.75533684     0.74380
O1489       O  0.60346890  0.03741247  0.81975623    -0.39070
O1490       O  0.62770699  0.07557620  0.86469356    -0.39010
O1491       O  0.67090240  0.11808765  0.72109051    -0.39720
O1492       O  0.70753447  0.13547590  0.77118863    -0.39790
C1493       C  0.56590212  0.34055235  0.78292070    -0.12070
C1494       C  0.58903746  0.36646532  0.79694884     0.04940
C1495       C  0.61773207  0.35317601  0.81715408    -0.07350
C1496       C  0.62252037  0.31399485  0.82254336    -0.08100
C1497       C  0.59933109  0.28790002  0.81010693    -0.02650
C1498       C  0.57067141  0.30119892  0.78902764     0.04170
N1499       N  0.54646308  0.27544188  0.77353677     0.66670
H1500       H  0.54397980  0.35118474  0.76722008     0.15570
H1501       H  0.64443038  0.30419362  0.83968536     0.15280
N1502       N  0.64179582  0.37884895  0.83504863     0.74380
O1503       O  0.52104062  0.28667915  0.76666736    -0.39070
O1504       O  0.54977885  0.24302995  0.76244238    -0.39010
O1505       O  0.63844313  0.40907341  0.84959141    -0.39720
O1506       O  0.66731290  0.36859215  0.84132795    -0.39790
C1507       C  0.68040483  0.30109292  0.94917574    -0.12070
C1508       C  0.65253585  0.28682376  0.94101122     0.04940
C1509       C  0.63193023  0.31102571  0.94538929    -0.07350
C1510       C  0.63880870  0.34927502  0.95454629    -0.08100
C1511       C  0.66574165  0.36411935  0.95975782    -0.02650
C1512       C  0.68749224  0.33948568  0.95877145     0.04170
N1513       N  0.71656417  0.35268711  0.96727735     0.66670
H1514       H  0.69639525  0.28253509  0.94651310     0.15570
H1515       H  0.62238518  0.36806985  0.95594709     0.15280
N1516       N  0.60349671  0.29788627  0.93911504     0.74380
O1517       O  0.73332837  0.33300168  0.95852018    -0.39070
O1518       O  0.72690270  0.38141716  0.98732988    -0.39010
O1519       O  0.60087743  0.26880057  0.95556361    -0.39720
O1520       O  0.58133697  0.31811034  0.92119301    -0.39790
loop_ 
_geom_bond_atom_site_label_1 
_geom_bond_atom_site_label_2 
_geom_bond_distance 
_geom_bond_site_symmetry_2 
_ccdc_geom_bond_type 
In1           O3   2.199       .  S
In1           O4   2.251       .  S
In1          O12   2.213       .  S
In1           O6   2.240       .  S
In1           O8   2.246       .  S
In1           O9   2.237       .  S
In1          O10   2.196       .  S
In1          O13   2.217       .  S
C2            O8   1.272       .  A
C2           O10   1.263       .  A
C2          C357   1.479       .  S
O3           C11   1.261       .  A
O4           C11   1.272       .  A
C5           O12   1.266       .  A
C5            O6   1.269       .  A
C5          C326   1.486       .  S
C7            O9   1.269       .  A
C7           O13   1.265       .  A
C7          C343   1.471       .  S
C11         C368   1.486       .  S
In14         O16   2.236       .  S
In14         O17   2.251   1_565  S
In14         O25   2.230   1_565  S
In14         O19   2.240   1_565  S
In14         O21   2.258       .  S
In14         O22   2.235   1_565  S
In14         O23   2.210       .  S
In14         O26   2.224       .  S
C15          O21   1.268       .  A
C15          O23   1.259       .  A
C15         C315   1.483       .  S
O16          C24   1.260       .  A
O17          C24   1.264   1_545  A
C18          O25   1.262       .  A
C18          O19   1.267       .  A
C18         C340   1.488       .  S
C20          O22   1.267   1_565  A
C20          O26   1.261       .  A
C20          C63   1.460       .  S
C24          C37   1.463       .  S
In27         O29   2.236       .  S
In27         O30   2.248   1_565  S
In27         O38   2.233   1_565  S
In27         O32   2.240   1_565  S
In27         O34   2.262       .  S
In27         O35   2.235   1_565  S
In27         O36   2.199       .  S
In27        O419   2.227   1_554  S
C28          O34   1.268       .  A
C28          O36   1.259       .  A
C28         C298   1.474       .  S
O29          C37   1.260       .  A
O30          C37   1.265   1_545  A
C31          O38   1.263   1_556  A
C31          O32   1.266   1_556  A
C31         C709   1.475       .  S
C33          O35   1.267   1_565  A
C33         O419   1.262   1_554  A
C33        C1216   1.461   1_454  S
O39        In407   2.227       .  S
O39         C413   1.262       .  A
In40         O42   2.225       .  S
In40         O43   2.246       .  S
In40         O51   2.232       .  S
In40         O45   2.239       .  S
In40         O47   2.242       .  S
In40         O48   2.237       .  S
In40         O49   2.233       .  S
In40         O52   2.228       .  S
C41          O47   1.263       .  A
C41          O49   1.259       .  A
C41         C273   1.475       .  S
O42          C50   1.263       .  A
O43          C50   1.265       .  A
C44          O51   1.263       .  A
C44          O45   1.264       .  A
C44         C259   1.470       .  S
C46          O48   1.264       .  A
C46          O52   1.261       .  A
C46         C284   1.480       .  S
C50         C245   1.487       .  S
In53         O55   2.227       .  S
In53         O56   2.236       .  S
In53         O64   2.228       .  S
In53         O58   2.243       .  S
In53         O60   2.261   1_565  S
In53         O61   2.241       .  S
In53         O62   2.203   1_565  S
In53         O65   2.233       .  S
C54          O60   1.269       .  A
C54          O62   1.259       .  A
C54         C228   1.479       .  S
O55          C63   1.260       .  A
O56          C63   1.266       .  A
C57          O64   1.262       .  A
C57          O58   1.267       .  A
C57         C256   1.481       .  S
C59          O61   1.265       .  A
C59          O65   1.262       .  A
C59          C72   1.462       .  S
In66         O69   2.237       .  S
In66         O77   2.237       .  S
In66         O73   2.262   1_565  S
In66         O74   2.247       .  S
In66         O75   2.205   1_565  S
In66         O78   2.233       .  S
In66        O448   2.228   1_565  S
In66        O451   2.243       .  S
C67          O73   1.267       .  A
C67          O75   1.259       .  A
C67         C217   1.485       .  S
O68        In446   2.228   1_544  S
O68         C456   1.261   1_544  A
O69          C76   1.266       .  A
C70          O71   1.265   1_554  A
C70         O457   1.262   1_554  A
C70         C242   1.475       .  S
O71        In446   2.243       .  S
C72          O74   1.264       .  A
C72          O78   1.260       .  A
C76         O448   1.261   1_565  A
C76        C1173   1.461       .  S
O77         C450   1.262       .  A
In79         O81   2.230       .  S
In79         O82   2.242       .  S
In79         O90   2.232       .  S
In79         O84   2.240       .  S
In79         O86   2.237       .  S
In79         O87   2.241       .  S
In79         O88   2.234       .  S
In79         O91   2.230       .  S
C80          O86   1.262       .  A
C80          O88   1.260       .  A
C80         C214   1.478       .  S
O81          C89   1.262       .  A
O82          C89   1.264       .  A
C83          O90   1.263       .  A
C83          O84   1.264       .  A
C83         C200   1.472       .  S
C85          O87   1.264       .  A
C85          O91   1.259       .  A
C85         C231   1.475       .  S
C89         C189   1.468       .  S
In92         O94   2.229       .  S
In92         O95   2.252       .  S
In92        O103   2.236       .  S
In92         O97   2.240       .  S
In92         O99   2.258       .  S
In92        O100   2.249       .  S
In92        O101   2.211       .  S
In92        O104   2.238       .  S
C93          O99   1.266       .  A
C93         O101   1.260       .  A
C93         C287   1.485       .  S
O94         C102   1.259       .  A
O95         C102   1.266       .  A
C96         O103   1.264       .  A
C96          O97   1.265       .  A
C96         C203   1.480       .  S
C98         O100   1.265       .  A
C98         O104   1.261       .  A
C98         C111   1.465       .  S
C102        C897   1.464       .  S
In105       O108   2.246       .  S
In105       O116   2.235       .  S
In105       O110   2.241   1_554  S
In105       O112   2.262       .  S
In105       O113   2.250       .  S
In105       O114   2.209       .  S
In105       O117   2.238       .  S
In105       O487   2.231   1_554  S
C106        O112   1.267       .  A
C106        O114   1.258       .  A
C106        C270   1.478       .  S
O107       In485   2.231       .  S
O107        C495   1.260       .  A
O108        C115   1.266       .  A
C109        O496   1.264       .  A
C109        O490   1.265       .  A
C109        C186   1.489       .  S
O110        C489   1.265       .  A
C111        O113   1.265       .  A
C111        O117   1.261       .  A
C115        O487   1.260   1_554  A
C115        C530   1.463   1_554  S
O116        C489   1.264   1_554  A
In118       O120   2.232       .  S
In118       O121   2.246       .  S
In118       O129   2.233       .  S
In118       O123   2.237       .  S
In118       O125   2.233       .  S
In118       O126   2.240       .  S
In118       O127   2.237       .  S
In118       O130   2.225       .  S
C119        O125   1.261       .  A
C119        O127   1.259       .  A
C119        C301   1.470       .  S
O120        C128   1.259       .  A
O121        C128   1.262       .  A
C122        O129   1.264       .  A
C122        O123   1.263       .  A
C122        C172   1.487       .  S
C124        O126   1.266       .  A
C124        O130   1.263       .  A
C124        C158   1.487       .  S
C128        C312   1.479       .  S
In131       O133   2.240       .  S
In131       O134   2.258       .  S
In131       O142   2.245       .  S
In131       O136   2.238       .  S
In131       O138   2.248       .  S
In131       O139   2.236       .  S
In131       O140   2.226       .  S
In131       O143   2.241       .  S
C132        O138   1.263       .  A
C132        O140   1.258       .  A
C132        C354   1.465       .  S
O133        C141   1.256       .  A
O134        C141   1.262       .  A
C135        O142   1.262       .  A
C135        O136   1.262       .  A
C135        C175   1.471       .  S
C137        O139   1.266       .  A
C137        O143   1.262       .  A
C137        C862   1.464   1_455  S
C141        C154   1.463       .  S
In144       O146   2.243       .  S
In144       O147   2.252       .  S
In144       O155   2.243       .  S
In144       O151   2.249       .  S
In144       O152   2.240       .  S
In144       O153   2.228       .  S
In144       O529   2.240       .  S
In144       O536   2.236       .  S
C145        O151   1.264       .  A
C145        O153   1.259       .  A
C145        C371   1.472       .  S
O146        C154   1.257       .  A
O147        C154   1.263       .  A
C148        O155   1.262       .  A
C148        O529   1.262       .  A
C148        C541   1.472       .  S
O149       In524   2.240       .  S
O149        C528   1.262   1_556  A
C150        O152   1.265       .  A
C150        O536   1.261       .  A
C150        C495   1.463       .  S
O156       In524   2.236   1_554  S
O156        C530   1.261   1_554  A
C157        C158   1.407       .  A
C157        C162   1.406       .  A
C157        H164   1.083       .  S
C158        C159   1.417       .  A
C159        C160   1.401       .  A
C159        N166   1.435       .  S
C160        C161   1.400       .  A
C160        H545   1.084   1_554  S
C161        C528   1.472       .  S
C161        C162   1.414       .  A
C162        N163   1.441       .  S
N163        O167   1.263       .  A
N163        O168   1.263       .  A
H165        C540   1.084       .  S
N166        O169   1.263       .  A
N166        O170   1.262       .  A
C171        C172   1.406       .  A
C171        C176   1.404       .  A
C171        H178   1.084       .  S
C172        C173   1.418       .  A
C173        C174   1.403       .  A
C173        N180   1.434       .  S
C174        C175   1.400       .  A
C174        H179   1.085       .  S
C175        C176   1.413       .  A
C176        N177   1.441       .  S
N177        O181   1.263       .  A
N177        O182   1.262       .  A
N180        O183   1.262       .  A
N180        O184   1.262       .  A
C185        C186   1.408       .  A
C185        C190   1.407       .  A
C185        H192   1.083       .  S
C186        C187   1.416       .  A
C187        C188   1.401       .  A
C187        N194   1.433       .  S
C188        C189   1.399       .  A
C188        H193   1.084       .  S
C189        C190   1.414       .  A
C190        N191   1.444       .  S
N191        O195   1.263       .  A
N191        O196   1.262       .  A
N194        O197   1.262       .  A
N194        O198   1.262       .  A
C199        C200   1.401       .  A
C199        C204   1.404       .  A
C199        H206   1.085       .  S
C200        C201   1.415       .  A
C201        C202   1.405       .  A
C201        N208   1.441       .  S
C202        C203   1.404       .  A
C202        H207   1.084       .  S
C203        C204   1.416       .  A
C204        N205   1.439       .  S
N205        O209   1.263       .  A
N205        O210   1.263       .  A
N208        O211   1.262       .  A
N208        O212   1.263       .  A
C213        C214   1.406       .  A
C213        C218   1.406       .  A
C213        H220   1.083       .  S
C214        C215   1.413       .  A
C215        C216   1.397       .  A
C215        N222   1.434       .  S
C216        C217   1.406       .  A
C216        H221   1.084       .  S
C217        C218   1.414       .  A
C218        N219   1.432       .  S
N219        O603   1.262       .  A
N219        O604   1.262       .  A
N222        O225   1.262       .  A
N222        O226   1.263       .  A
O223        N599   1.262       .  A
O224        N599   1.262   1_556  A
C227        C228   1.404       .  A
C227        C232   1.408       .  A
C227        H234   1.082       .  S
C228        C229   1.416       .  A
C229        C230   1.398       .  A
C229        N236   1.438       .  S
C230        C231   1.402       .  A
C230        H235   1.084       .  S
C231        C232   1.415       .  A
C232        N233   1.440       .  S
N233        O237   1.263       .  A
N233        O238   1.263       .  A
N236        O239   1.263       .  A
N236        O240   1.263       .  A
C241        C242   1.402       .  A
C241        C246   1.404       .  A
C241        H248   1.085       .  S
C242        C243   1.413       .  A
C243        C244   1.403       .  A
C243        N630   1.440   1_554  S
C244        C245   1.407       .  A
C244        H249   1.085       .  S
C245        C246   1.416       .  A
C246        N247   1.433       .  S
N247        O251   1.262       .  A
N247        O252   1.262       .  A
N250        C623   1.440       .  S
N250        O253   1.262       .  A
N250        O254   1.263       .  A
C255        C256   1.404       .  A
C255        C260   1.406       .  A
C255        H262   1.083       .  S
C256        C257   1.415       .  A
C257        C258   1.401       .  A
C257        N264   1.433       .  S
C258        C259   1.400       .  A
C258        H263   1.085       .  S
C259        C260   1.414       .  A
C260        N261   1.441       .  S
N261        O265   1.263       .  A
N261        O266   1.263       .  A
N264        O267   1.262       .  A
N264        O268   1.262       .  A
C269        C270   1.404       .  A
C269        C274   1.409       .  A
C269        H276   1.082       .  S
C270        C271   1.415       .  A
C271        C272   1.399       .  A
C271        N278   1.439       .  S
C272        C273   1.402       .  A
C272        H277   1.084       .  S
C273        C274   1.415       .  A
C274        N275   1.440       .  S
N275        O280   1.263       .  A
N275        O659   1.263   1_554  A
N278        O281   1.263       .  A
N278        O282   1.263       .  A
O279        N655   1.263       .  A
C283        C284   1.406       .  A
C283        C288   1.404       .  A
C283        H290   1.084       .  S
C284        C285   1.413       .  A
C285        C286   1.398       .  A
C285        N292   1.434       .  S
C286        C287   1.406       .  A
C286        H291   1.084       .  S
C287        C288   1.413       .  A
C288        N289   1.432       .  S
N289        O293   1.262       .  A
N289        O294   1.262       .  A
N292        O295   1.262       .  A
N292        O296   1.263       .  A
C297        C298   1.404       .  A
C297        C302   1.410       .  A
C297        H304   1.082       .  S
C298        C299   1.414       .  A
C299        C300   1.396       .  A
C299        N306   1.440       .  S
C300        C301   1.402       .  A
C300        H305   1.084       .  S
C301        C302   1.414       .  A
C302        N303   1.441       .  S
N303        O307   1.263   1_554  A
N303        O308   1.263       .  A
N306        O309   1.263       .  A
N306        O310   1.263       .  A
C311        C312   1.406       .  A
C311        C316   1.406       .  A
C311        H318   1.083       .  S
C312        C313   1.414       .  A
C313        C314   1.397       .  A
C313        N320   1.433       .  S
C314        C315   1.405       .  A
C314        H319   1.084       .  S
C315        C316   1.414       .  A
C316        N317   1.437       .  S
N317        O321   1.262       .  A
N317        O322   1.263       .  A
N320        O323   1.262       .  A
N320        O324   1.262       .  A
C325        C326   1.407       .  A
C325        C330   1.403       .  A
C325        H332   1.085       .  S
C326        C327   1.415       .  A
C327        C328   1.404       .  A
C327        N334   1.433       .  S
C328        C329   1.402       .  A
C328        H333   1.085       .  S
C329        C411   1.475       .  S
C329        C330   1.413       .  A
C330        N711   1.440       .  S
N331        C710   1.440   1_554  S
N331        O335   1.263   1_554  A
N331        O336   1.263       .  A
N334        O337   1.262       .  A
N334        O338   1.262       .  A
C339        C340   1.406       .  A
C339        C344   1.405       .  A
C339        H346   1.084       .  S
C340        C341   1.419       .  A
C341        C342   1.403       .  A
C341        N348   1.434       .  S
C342        C343   1.399       .  A
C342        H347   1.085       .  S
C343        C344   1.413       .  A
C344        N345   1.441       .  S
N345        O349   1.263       .  A
N345        O350   1.263       .  A
N348        O351   1.263       .  A
N348        O352   1.262       .  A
C353        C354   1.403       .  A
C353        C358   1.407       .  A
C353        H360   1.084       .  S
C354        C355   1.410       .  A
C355        C356   1.399       .  A
C355        N362   1.442       .  S
C356        C357   1.408       .  A
C356        H361   1.084       .  S
C357        C358   1.414       .  A
C358        N359   1.439       .  S
N359        O363   1.263       .  A
N359        O364   1.263       .  A
N362        O365   1.262       .  A
N362        O366   1.263       .  A
C367        C368   1.405       .  A
C367        C372   1.408       .  A
C367        H374   1.083       .  S
C368        C369   1.419       .  A
C369        C370   1.399       .  A
C369        N376   1.436       .  S
C370        C371   1.397       .  A
C370        H375   1.085       .  S
C371        C372   1.418       .  A
C372        N373   1.445       .  S
N373        O377   1.263       .  A
N373        O378   1.262       .  A
N376        O379   1.262       .  A
N376        O380   1.263       .  A
In381       O383   2.199       .  S
In381       O384   2.251       .  S
In381       O392   2.213       .  S
In381       O386   2.240       .  S
In381       O388   2.246       .  S
In381       O389   2.237       .  S
In381       O390   2.196       .  S
In381       O393   2.217       .  S
C382        O388   1.272       .  A
C382        O390   1.263       .  A
C382        C737   1.479       .  S
O383        C391   1.261       .  A
O384        C391   1.272       .  A
C385        O392   1.266       .  A
C385        O386   1.269       .  A
C385        C706   1.486       .  S
C387        O389   1.269       .  A
C387        O393   1.265       .  A
C387        C723   1.471       .  S
C391        C748   1.486       .  S
In394       O396   2.236       .  S
In394       O397   2.251   1_565  S
In394       O405   2.230   1_565  S
In394       O399   2.240   1_565  S
In394       O401   2.258       .  S
In394       O402   2.235   1_565  S
In394       O403   2.210       .  S
In394       O406   2.224       .  S
C395        O401   1.268       .  A
C395        O403   1.259       .  A
C395        C695   1.483       .  S
O396        C404   1.260       .  A
O397        C404   1.264   1_545  A
C398        O405   1.262       .  A
C398        O399   1.267       .  A
C398        C720   1.488       .  S
C400        O402   1.267   1_565  A
C400        O406   1.261       .  A
C400        C443   1.460       .  S
C404        C417   1.463       .  S
In407       O409   2.236       .  S
In407       O410   2.248   1_565  S
In407       O418   2.233   1_565  S
In407       O412   2.240   1_565  S
In407       O414   2.262       .  S
In407       O415   2.235   1_565  S
In407       O416   2.199       .  S
C408        O414   1.268       .  A
C408        O416   1.259       .  A
C408        C678   1.474       .  S
O409        C417   1.260       .  A
O410        C417   1.265   1_545  A
C411        O418   1.263       .  A
C411        O412   1.266       .  A
C413        O415   1.267   1_565  A
C413        C836   1.461   1_455  S
In420       O422   2.225       .  S
In420       O423   2.246       .  S
In420       O431   2.232       .  S
In420       O425   2.239       .  S
In420       O427   2.242       .  S
In420       O428   2.237       .  S
In420       O429   2.233       .  S
In420       O432   2.228       .  S
C421        O427   1.263       .  A
C421        O429   1.259       .  A
C421        C653   1.475       .  S
O422        C430   1.263       .  A
O423        C430   1.265       .  A
C424        O431   1.263       .  A
C424        O425   1.264       .  A
C424        C639   1.470       .  S
C426        O428   1.264       .  A
C426        O432   1.261       .  A
C426        C664   1.480       .  S
C430        C625   1.487       .  S
In433       O435   2.227       .  S
In433       O436   2.236       .  S
In433       O444   2.228       .  S
In433       O438   2.243       .  S
In433       O440   2.261   1_565  S
In433       O441   2.241       .  S
In433       O442   2.203   1_565  S
In433       O445   2.233       .  S
C434        O440   1.269       .  A
C434        O442   1.259       .  A
C434        C608   1.479       .  S
O435        C443   1.260       .  A
O436        C443   1.266       .  A
C437        O444   1.262       .  A
C437        O438   1.267       .  A
C437        C636   1.481       .  S
C439        O441   1.265       .  A
C439        O445   1.262       .  A
C439        C452   1.462       .  S
In446       O449   2.237       .  S
In446       O457   2.237       .  S
In446       O453   2.262   1_565  S
In446       O454   2.247       .  S
In446       O455   2.205   1_565  S
In446       O458   2.233       .  S
C447        O453   1.267       .  A
C447        O455   1.259       .  A
C447        C597   1.485       .  S
O449        C456   1.266       .  A
C450        O451   1.265       .  A
C450        C622   1.475       .  S
C452        O454   1.264       .  A
C452        O458   1.260       .  A
C456        C793   1.461   1_556  S
In459       O461   2.230       .  S
In459       O462   2.242       .  S
In459       O470   2.232       .  S
In459       O464   2.240       .  S
In459       O466   2.237       .  S
In459       O467   2.241       .  S
In459       O468   2.234       .  S
In459       O471   2.230       .  S
C460        O466   1.262       .  A
C460        O468   1.260       .  A
C460        C594   1.478       .  S
O461        C469   1.262       .  A
O462        C469   1.264       .  A
C463        O470   1.263       .  A
C463        O464   1.264       .  A
C463        C580   1.472       .  S
C465        O467   1.264       .  A
C465        O471   1.259       .  A
C465        C611   1.475       .  S
C469        C569   1.468       .  S
In472       O474   2.229       .  S
In472       O475   2.252       .  S
In472       O483   2.236       .  S
In472       O477   2.240       .  S
In472       O479   2.258       .  S
In472       O480   2.249       .  S
In472       O481   2.211       .  S
In472       O484   2.238       .  S
C473        O479   1.266       .  A
C473        O481   1.260       .  A
C473        C667   1.485       .  S
O474        C482   1.259       .  A
O475        C482   1.266       .  A
C476        O483   1.264       .  A
C476        O477   1.265       .  A
C476        C583   1.480       .  S
C478        O480   1.265       .  A
C478        O484   1.261       .  A
C478        C491   1.465       .  S
C482       C1277   1.464       .  S
In485       O488   2.246       .  S
In485       O496   2.235       .  S
In485       O490   2.241       .  S
In485       O492   2.262       .  S
In485       O493   2.250       .  S
In485       O494   2.209       .  S
In485       O497   2.238       .  S
C486        O492   1.267       .  A
C486        O494   1.258       .  A
C486        C650   1.478       .  S
O488        C495   1.266       .  A
C489        C566   1.489       .  S
C491        O493   1.265       .  A
C491        O497   1.261       .  A
In498       O500   2.232       .  S
In498       O501   2.246       .  S
In498       O509   2.233       .  S
In498       O503   2.237       .  S
In498       O505   2.233       .  S
In498       O506   2.240       .  S
In498       O507   2.237       .  S
In498       O510   2.225       .  S
C499        O505   1.261       .  A
C499        O507   1.259       .  A
C499        C681   1.470       .  S
O500        C508   1.259       .  A
O501        C508   1.262       .  A
C502        O509   1.264       .  A
C502        O503   1.263       .  A
C502        C552   1.487       .  S
C504        O506   1.266       .  A
C504        O510   1.263       .  A
C504        C538   1.487       .  S
C508        C692   1.479       .  S
In511       O513   2.240       .  S
In511       O514   2.258       .  S
In511       O522   2.245       .  S
In511       O516   2.238       .  S
In511       O518   2.248       .  S
In511       O519   2.236       .  S
In511       O520   2.226       .  S
In511       O523   2.241       .  S
C512        O518   1.263       .  A
C512        O520   1.258       .  A
C512        C734   1.465       .  S
O513        C521   1.256       .  A
O514        C521   1.262       .  A
C515        O522   1.262       .  A
C515        O516   1.262       .  A
C515        C555   1.471       .  S
C517        O519   1.266       .  A
C517        O523   1.262       .  A
C517       C1242   1.464   1_455  S
C521        C534   1.463       .  S
In524       O526   2.243       .  S
In524       O527   2.252       .  S
In524       O535   2.243       .  S
In524       O531   2.249       .  S
In524       O532   2.240       .  S
In524       O533   2.228       .  S
C525        O531   1.264       .  A
C525        O533   1.259       .  A
C525        C751   1.472       .  S
O526        C534   1.257       .  A
O527        C534   1.263       .  A
C528        O535   1.262   1_554  A
C530        O532   1.265       .  A
C537        C538   1.407       .  A
C537        C542   1.406       .  A
C537        H544   1.083       .  S
C538        C539   1.417       .  A
C539        C540   1.401       .  A
C539        N546   1.435       .  S
C540        C541   1.400       .  A
C541        C542   1.414       .  A
C542        N543   1.441       .  S
N543        O547   1.263       .  A
N543        O548   1.263       .  A
N546        O549   1.263       .  A
N546        O550   1.262       .  A
C551        C552   1.406       .  A
C551        C556   1.404       .  A
C551        H558   1.084       .  S
C552        C553   1.418       .  A
C553        C554   1.403       .  A
C553        N560   1.434       .  S
C554        C555   1.400       .  A
C554        H559   1.085       .  S
C555        C556   1.413       .  A
C556        N557   1.441       .  S
N557        O561   1.263       .  A
N557        O562   1.262       .  A
N560        O563   1.262       .  A
N560        O564   1.262       .  A
C565        C566   1.408       .  A
C565        C570   1.407       .  A
C565        H572   1.083   1_556  S
C566        C567   1.416       .  A
C567        C568   1.401       .  A
C567        N574   1.433       .  S
C568        C569   1.399       .  A
C568        H573   1.084       .  S
C569        C570   1.414       .  A
C570        N571   1.444       .  S
N571        O575   1.263       .  A
N571        O576   1.262       .  A
N574        O577   1.262       .  A
N574        O578   1.262       .  A
C579        C580   1.401       .  A
C579        C584   1.404       .  A
C579        H586   1.085       .  S
C580        C581   1.415       .  A
C581        C582   1.405       .  A
C581        N588   1.441       .  S
C582        C583   1.404       .  A
C582        H587   1.084       .  S
C583        C584   1.416       .  A
C584        N585   1.439       .  S
N585        O589   1.263       .  A
N585        O590   1.263       .  A
N588        O591   1.262       .  A
N588        O592   1.263       .  A
C593        C594   1.406       .  A
C593        C598   1.406       .  A
C593        H600   1.083       .  S
C594        C595   1.413       .  A
C595        C596   1.397       .  A
C595        N602   1.434       .  S
C596        C597   1.406       .  A
C596        H601   1.084       .  S
C597        C598   1.414       .  A
C598        N599   1.432   1_556  S
N602        O605   1.262       .  A
N602        O606   1.263       .  A
C607        C608   1.404       .  A
C607        C612   1.408       .  A
C607        H614   1.082       .  S
C608        C609   1.416       .  A
C609        C610   1.398       .  A
C609        N616   1.438       .  S
C610        C611   1.402       .  A
C610        H615   1.084       .  S
C611        C612   1.415       .  A
C612        N613   1.440       .  S
N613        O617   1.263       .  A
N613        O618   1.263       .  A
N616        O619   1.263       .  A
N616        O620   1.263       .  A
C621        C622   1.402       .  A
C621        C626   1.404       .  A
C621        H628   1.085       .  S
C622        C623   1.413       .  A
C623        C624   1.403       .  A
C624        C625   1.407       .  A
C624        H629   1.085       .  S
C625        C626   1.416       .  A
C626        N627   1.433       .  S
N627        O631   1.262       .  A
N627        O632   1.262       .  A
N630        O633   1.262       .  A
N630        O634   1.263       .  A
C635        C636   1.404       .  A
C635        C640   1.406       .  A
C635        H642   1.083       .  S
C636        C637   1.415       .  A
C637        C638   1.401       .  A
C637        N644   1.433       .  S
C638        C639   1.400       .  A
C638        H643   1.085       .  S
C639        C640   1.414       .  A
C640        N641   1.441       .  S
N641        O645   1.263       .  A
N641        O646   1.263       .  A
N644        O647   1.262       .  A
N644        O648   1.262       .  A
C649        C650   1.404       .  A
C649        C654   1.409       .  A
C649        H656   1.082       .  S
C650        C651   1.415       .  A
C651        C652   1.399       .  A
C651        N658   1.439       .  S
C652        C653   1.402       .  A
C652        H657   1.084       .  S
C653        C654   1.415       .  A
C654        N655   1.440       .  S
N655        O660   1.263       .  A
N658        O661   1.263       .  A
N658        O662   1.263       .  A
C663        C664   1.406       .  A
C663        C668   1.404       .  A
C663        H670   1.084       .  S
C664        C665   1.413       .  A
C665        C666   1.398       .  A
C665        N672   1.434       .  S
C666        C667   1.406       .  A
C666        H671   1.084       .  S
C667        C668   1.413       .  A
C668        N669   1.432       .  S
N669        O673   1.262       .  A
N669        O674   1.262       .  A
N672        O675   1.262       .  A
N672        O676   1.263       .  A
C677        C678   1.404       .  A
C677        C682   1.410       .  A
C677        H684   1.082       .  S
C678        C679   1.414       .  A
C679        C680   1.396       .  A
C679        N686   1.440       .  S
C680        C681   1.402       .  A
C680        H685   1.084       .  S
C681        C682   1.414       .  A
C682        N683   1.441       .  S
N683        O687   1.263       .  A
N683        O688   1.263       .  A
N686        O689   1.263       .  A
N686        O690   1.263       .  A
C691        C692   1.406       .  A
C691        C696   1.406       .  A
C691        H698   1.083       .  S
C692        C693   1.414       .  A
C693        C694   1.397       .  A
C693        N700   1.433       .  S
C694        C695   1.405       .  A
C694        H699   1.084       .  S
C695        C696   1.414       .  A
C696        N697   1.437       .  S
N697        O701   1.262       .  A
N697        O702   1.263       .  A
N700        O703   1.262       .  A
N700        O704   1.262       .  A
C705        C706   1.407       .  A
C705        C710   1.403       .  A
C705        H712   1.085       .  S
C706        C707   1.415       .  A
C707        C708   1.404       .  A
C707        N714   1.433       .  S
C708        C709   1.402       .  A
C708        H713   1.085       .  S
C709        C710   1.413       .  A
N711        O715   1.263       .  A
N711        O716   1.263       .  A
N714        O717   1.262       .  A
N714        O718   1.262       .  A
C719        C720   1.406       .  A
C719        C724   1.405       .  A
C719        H726   1.084       .  S
C720        C721   1.419       .  A
C721        C722   1.403       .  A
C721        N728   1.434       .  S
C722        C723   1.399       .  A
C722        H727   1.085       .  S
C723        C724   1.413       .  A
C724        N725   1.441       .  S
N725        O729   1.263       .  A
N725        O730   1.263       .  A
N728        O731   1.263       .  A
N728        O732   1.262       .  A
C733        C734   1.403       .  A
C733        C738   1.407       .  A
C733        H740   1.084       .  S
C734        C735   1.410       .  A
C735        C736   1.399       .  A
C735        N742   1.442       .  S
C736        C737   1.408       .  A
C736        H741   1.084       .  S
C737        C738   1.414       .  A
C738        N739   1.439       .  S
N739        O743   1.263       .  A
N739        O744   1.263       .  A
N742        O745   1.262       .  A
N742        O746   1.263       .  A
C747        C748   1.405       .  A
C747        C752   1.408       .  A
C747        H754   1.083       .  S
C748        C749   1.419       .  A
C749        C750   1.399       .  A
C749        N756   1.436       .  S
C750        C751   1.397       .  A
C750        H755   1.085       .  S
C751        C752   1.418       .  A
C752        N753   1.445       .  S
N753        O757   1.263       .  A
N753        O758   1.262       .  A
N756        O759   1.262       .  A
N756        O760   1.263       .  A
In761       O763   2.199       .  S
In761       O764   2.251       .  S
In761       O772   2.213       .  S
In761       O766   2.240       .  S
In761       O768   2.246       .  S
In761       O769   2.237       .  S
In761       O770   2.196       .  S
In761       O773   2.217       .  S
C762        O768   1.272       .  A
C762        O770   1.263       .  A
C762       C1117   1.479       .  S
O763        C771   1.261       .  A
O764        C771   1.272       .  A
C765        O772   1.266       .  A
C765        O766   1.269       .  A
C765       C1086   1.486       .  S
C767        O769   1.269       .  A
C767        O773   1.265       .  A
C767       C1103   1.471       .  S
C771       C1128   1.486       .  S
In774       O776   2.236       .  S
In774       O777   2.251   1_565  S
In774       O785   2.230   1_565  S
In774       O779   2.240   1_565  S
In774       O781   2.258       .  S
In774       O782   2.235   1_565  S
In774       O783   2.210       .  S
In774       O786   2.224       .  S
C775        O781   1.268       .  A
C775        O783   1.259       .  A
C775       C1075   1.483       .  S
O776        C784   1.260       .  A
O777        C784   1.264   1_545  A
C778        O785   1.262       .  A
C778        O779   1.267       .  A
C778       C1100   1.488       .  S
C780        O782   1.267   1_565  A
C780        O786   1.261       .  A
C780        C823   1.460       .  S
C784        C797   1.463       .  S
In787       O789   2.236       .  S
In787       O790   2.248   1_565  S
In787       O798   2.233   1_565  S
In787       O792   2.240   1_565  S
In787       O794   2.262       .  S
In787       O795   2.235   1_565  S
In787       O796   2.199       .  S
In787      O1179   2.227   1_554  S
C788        O794   1.268       .  A
C788        O796   1.259       .  A
C788       C1058   1.474       .  S
O789        C797   1.260       .  A
O790        C797   1.265   1_545  A
C791        O798   1.263   1_556  A
C791        O792   1.266   1_556  A
C791       C1469   1.475       .  S
C793        O795   1.267   1_565  A
C793       O1179   1.262   1_554  A
O799      In1167   2.227       .  S
O799       C1173   1.262       .  A
In800       O802   2.225       .  S
In800       O803   2.246       .  S
In800       O811   2.232       .  S
In800       O805   2.239       .  S
In800       O807   2.242       .  S
In800       O808   2.237       .  S
In800       O809   2.233       .  S
In800       O812   2.228       .  S
C801        O807   1.263       .  A
C801        O809   1.259       .  A
C801       C1033   1.475       .  S
O802        C810   1.263       .  A
O803        C810   1.265       .  A
C804        O811   1.263       .  A
C804        O805   1.264       .  A
C804       C1019   1.470       .  S
C806        O808   1.264       .  A
C806        O812   1.261       .  A
C806       C1044   1.480       .  S
C810       C1005   1.487       .  S
In813       O815   2.227       .  S
In813       O816   2.236       .  S
In813       O824   2.228       .  S
In813       O818   2.243       .  S
In813       O820   2.261   1_565  S
In813       O821   2.241       .  S
In813       O822   2.203   1_565  S
In813       O825   2.233       .  S
C814        O820   1.269       .  A
C814        O822   1.259       .  A
C814        C988   1.479       .  S
O815        C823   1.260       .  A
O816        C823   1.266       .  A
C817        O824   1.262       .  A
C817        O818   1.267       .  A
C817       C1016   1.481       .  S
C819        O821   1.265       .  A
C819        O825   1.262       .  A
C819        C832   1.462       .  S
In826      O1208   2.228   1_565  S
In826       O829   2.237       .  S
In826       O837   2.237       .  S
In826      O1211   2.243       .  S
In826       O833   2.262   1_565  S
In826       O834   2.247       .  S
In826       O835   2.205   1_565  S
In826       O838   2.233       .  S
C827        O833   1.267       .  A
C827        O835   1.259       .  A
C827        C977   1.485       .  S
O828      In1206   2.228   1_544  S
O828       C1216   1.261   1_544  A
O829        C836   1.266       .  A
C830       O1217   1.262   1_554  A
C830        O831   1.265   1_554  A
C830       C1002   1.475       .  S
O831      In1206   2.243       .  S
C832        O834   1.264       .  A
C832        O838   1.260       .  A
C836       O1208   1.261   1_565  A
O837       C1210   1.262       .  A
In839       O841   2.230       .  S
In839       O842   2.242       .  S
In839       O850   2.232       .  S
In839       O844   2.240       .  S
In839       O846   2.237       .  S
In839       O847   2.241       .  S
In839       O848   2.234       .  S
In839       O851   2.230       .  S
C840        O846   1.262       .  A
C840        O848   1.260       .  A
C840        C974   1.478       .  S
O841        C849   1.262       .  A
O842        C849   1.264       .  A
C843        O850   1.263       .  A
C843        O844   1.264       .  A
C843        C960   1.472       .  S
C845        O847   1.264       .  A
C845        O851   1.259       .  A
C845        C991   1.475       .  S
C849        C949   1.468       .  S
In852       O854   2.229       .  S
In852       O855   2.252       .  S
In852       O863   2.236       .  S
In852       O857   2.240       .  S
In852       O859   2.258       .  S
In852       O860   2.249       .  S
In852       O861   2.211       .  S
In852       O864   2.238       .  S
C853        O859   1.266       .  A
C853        O861   1.260       .  A
C853       C1047   1.485       .  S
O854        C862   1.259       .  A
O855        C862   1.266       .  A
C856        O863   1.264       .  A
C856        O857   1.265       .  A
C856        C963   1.480       .  S
C858        O860   1.265       .  A
C858        O864   1.261       .  A
C858        C871   1.465       .  S
In865      O1247   2.231   1_554  S
In865       O868   2.246       .  S
In865       O876   2.235       .  S
In865       O870   2.241   1_554  S
In865       O872   2.262       .  S
In865       O873   2.250       .  S
In865       O874   2.209       .  S
In865       O877   2.238       .  S
C866        O872   1.267       .  A
C866        O874   1.258       .  A
C866       C1030   1.478       .  S
O867      In1245   2.231       .  S
O867       C1255   1.260       .  A
O868        C875   1.266       .  A
C869       O1256   1.264       .  A
C869       O1250   1.265       .  A
C869        C946   1.489       .  S
O870       C1249   1.265       .  A
C871        O873   1.265       .  A
C871        O877   1.261       .  A
C875       O1247   1.260   1_554  A
C875       C1290   1.463   1_554  S
O876       C1249   1.264   1_554  A
In878       O880   2.232       .  S
In878       O881   2.246       .  S
In878       O889   2.233       .  S
In878       O883   2.237       .  S
In878       O885   2.233       .  S
In878       O886   2.240       .  S
In878       O887   2.237       .  S
In878       O890   2.225       .  S
C879        O885   1.261       .  A
C879        O887   1.259       .  A
C879       C1061   1.470       .  S
O880        C888   1.259       .  A
O881        C888   1.262       .  A
C882        O889   1.264       .  A
C882        O883   1.263       .  A
C882        C932   1.487       .  S
C884        O886   1.266       .  A
C884        O890   1.263       .  A
C884        C918   1.487       .  S
C888       C1072   1.479       .  S
In891       O893   2.240       .  S
In891       O894   2.258       .  S
In891       O902   2.245       .  S
In891       O896   2.238       .  S
In891       O898   2.248       .  S
In891       O899   2.236       .  S
In891       O900   2.226       .  S
In891       O903   2.241       .  S
C892        O898   1.263       .  A
C892        O900   1.258       .  A
C892       C1114   1.465       .  S
O893        C901   1.256       .  A
O894        C901   1.262       .  A
C895        O902   1.262       .  A
C895        O896   1.262       .  A
C895        C935   1.471       .  S
C897        O899   1.266       .  A
C897        O903   1.262       .  A
C901        C914   1.463       .  S
In904       O906   2.243       .  S
In904       O907   2.252       .  S
In904       O915   2.243       .  S
In904      O1289   2.240       .  S
In904       O911   2.249       .  S
In904       O912   2.240       .  S
In904       O913   2.228       .  S
In904      O1296   2.236       .  S
C905        O911   1.264       .  A
C905        O913   1.259       .  A
C905       C1131   1.472       .  S
O906        C914   1.257       .  A
O907        C914   1.263       .  A
C908        O915   1.262       .  A
C908       O1289   1.262       .  A
C908       C1301   1.472       .  S
O909      In1284   2.240       .  S
O909       C1288   1.262   1_556  A
C910        O912   1.265       .  A
C910       O1296   1.261       .  A
C910       C1255   1.463       .  S
O916      In1284   2.236   1_554  S
O916       C1290   1.261   1_554  A
C917        C918   1.407       .  A
C917        C922   1.406       .  A
C917        H924   1.083       .  S
C918        C919   1.417       .  A
C919        C920   1.401       .  A
C919        N926   1.435       .  S
C920        C921   1.400       .  A
C920       H1305   1.084   1_554  S
C921       C1288   1.472       .  S
C921        C922   1.414       .  A
C922        N923   1.441       .  S
N923        O927   1.263       .  A
N923        O928   1.263       .  A
H925       C1300   1.084       .  S
N926        O929   1.263       .  A
N926        O930   1.262       .  A
C931        C932   1.406       .  A
C931        C936   1.404       .  A
C931        H938   1.084       .  S
C932        C933   1.418       .  A
C933        C934   1.403       .  A
C933        N940   1.434       .  S
C934        C935   1.400       .  A
C934        H939   1.085       .  S
C935        C936   1.413       .  A
C936        N937   1.441       .  S
N937        O941   1.263       .  A
N937        O942   1.262       .  A
N940        O943   1.262       .  A
N940        O944   1.262       .  A
C945        C946   1.408       .  A
C945        C950   1.407       .  A
C945        H952   1.083       .  S
C946        C947   1.416       .  A
C947        C948   1.401       .  A
C947        N954   1.433       .  S
C948        C949   1.399       .  A
C948        H953   1.084       .  S
C949        C950   1.414       .  A
C950        N951   1.444       .  S
N951        O955   1.263       .  A
N951        O956   1.262       .  A
N954        O957   1.262       .  A
N954        O958   1.262       .  A
C959        C960   1.401       .  A
C959        C964   1.404       .  A
C959        H966   1.085       .  S
C960        C961   1.415       .  A
C961        C962   1.405       .  A
C961        N968   1.441       .  S
C962        C963   1.404       .  A
C962        H967   1.084       .  S
C963        C964   1.416       .  A
C964        N965   1.439       .  S
N965        O969   1.263       .  A
N965        O970   1.263       .  A
N968        O971   1.262       .  A
N968        O972   1.263       .  A
C973        C974   1.406       .  A
C973        C978   1.406       .  A
C973        H980   1.083       .  S
C974        C975   1.413       .  A
C975        C976   1.397       .  A
C975        N982   1.434       .  S
C976        C977   1.406       .  A
C976        H981   1.084       .  S
C977        C978   1.414       .  A
C978        N979   1.432       .  S
N979       O1363   1.262       .  A
N979       O1364   1.262       .  A
N982        O985   1.262       .  A
N982        O986   1.263       .  A
O983       N1359   1.262       .  A
O984       N1359   1.262   1_556  A
C987        C988   1.404       .  A
C987        C992   1.408       .  A
C987        H994   1.082       .  S
C988        C989   1.416       .  A
C989        C990   1.398       .  A
C989        N996   1.438       .  S
C990        C991   1.402       .  A
C990        H995   1.084       .  S
C991        C992   1.415       .  A
C992        N993   1.440       .  S
N993        O997   1.263       .  A
N993        O998   1.263       .  A
N996        O999   1.263       .  A
N996       O1000   1.263       .  A
C1001      C1002   1.402       .  A
C1001      C1006   1.404       .  A
C1001      H1008   1.085       .  S
C1002      C1003   1.413       .  A
C1003      C1004   1.403       .  A
C1003      N1390   1.440   1_554  S
C1004      C1005   1.407       .  A
C1004      H1009   1.085       .  S
C1005      C1006   1.416       .  A
C1006      N1007   1.433       .  S
N1007      O1011   1.262       .  A
N1007      O1012   1.262       .  A
N1010      C1383   1.440       .  S
N1010      O1013   1.262       .  A
N1010      O1014   1.263       .  A
C1015      C1016   1.404       .  A
C1015      C1020   1.406       .  A
C1015      H1022   1.083       .  S
C1016      C1017   1.415       .  A
C1017      C1018   1.401       .  A
C1017      N1024   1.433       .  S
C1018      C1019   1.400       .  A
C1018      H1023   1.085       .  S
C1019      C1020   1.414       .  A
C1020      N1021   1.441       .  S
N1021      O1025   1.263       .  A
N1021      O1026   1.263       .  A
N1024      O1027   1.262       .  A
N1024      O1028   1.262       .  A
C1029      C1030   1.404       .  A
C1029      C1034   1.409       .  A
C1029      H1036   1.082       .  S
C1030      C1031   1.415       .  A
C1031      C1032   1.399       .  A
C1031      N1038   1.439       .  S
C1032      C1033   1.402       .  A
C1032      H1037   1.084       .  S
C1033      C1034   1.415       .  A
C1034      N1035   1.440       .  S
N1035      O1419   1.263   1_554  A
N1035      O1040   1.263       .  A
N1038      O1041   1.263       .  A
N1038      O1042   1.263       .  A
O1039      N1415   1.263       .  A
C1043      C1044   1.406       .  A
C1043      C1048   1.404       .  A
C1043      H1050   1.084       .  S
C1044      C1045   1.413       .  A
C1045      C1046   1.398       .  A
C1045      N1052   1.434       .  S
C1046      C1047   1.406       .  A
C1046      H1051   1.084       .  S
C1047      C1048   1.413       .  A
C1048      N1049   1.432       .  S
N1049      O1053   1.262       .  A
N1049      O1054   1.262       .  A
N1052      O1055   1.262       .  A
N1052      O1056   1.263       .  A
C1057      C1058   1.404       .  A
C1057      C1062   1.410       .  A
C1057      H1064   1.082       .  S
C1058      C1059   1.414       .  A
C1059      C1060   1.396       .  A
C1059      N1066   1.440       .  S
C1060      C1061   1.402       .  A
C1060      H1065   1.084       .  S
C1061      C1062   1.414       .  A
C1062      N1063   1.441       .  S
N1063      O1067   1.263   1_554  A
N1063      O1068   1.263       .  A
N1066      O1069   1.263       .  A
N1066      O1070   1.263       .  A
C1071      C1072   1.406       .  A
C1071      C1076   1.406       .  A
C1071      H1078   1.083       .  S
C1072      C1073   1.414       .  A
C1073      C1074   1.397       .  A
C1073      N1080   1.433       .  S
C1074      C1075   1.405       .  A
C1074      H1079   1.084       .  S
C1075      C1076   1.414       .  A
C1076      N1077   1.437       .  S
N1077      O1081   1.262       .  A
N1077      O1082   1.263       .  A
N1080      O1083   1.262       .  A
N1080      O1084   1.262       .  A
C1085      C1086   1.407       .  A
C1085      C1090   1.403       .  A
C1085      H1092   1.085       .  S
C1086      C1087   1.415       .  A
C1087      C1088   1.404       .  A
C1087      N1094   1.433       .  S
C1088      C1089   1.402       .  A
C1088      H1093   1.085       .  S
C1089      C1171   1.475       .  S
C1089      C1090   1.413       .  A
C1090      N1471   1.440       .  S
N1091      C1470   1.440   1_554  S
N1091      O1095   1.263   1_554  A
N1091      O1096   1.263       .  A
N1094      O1097   1.262       .  A
N1094      O1098   1.262       .  A
C1099      C1100   1.406       .  A
C1099      C1104   1.405       .  A
C1099      H1106   1.084       .  S
C1100      C1101   1.419       .  A
C1101      C1102   1.403       .  A
C1101      N1108   1.434       .  S
C1102      C1103   1.399       .  A
C1102      H1107   1.085       .  S
C1103      C1104   1.413       .  A
C1104      N1105   1.441       .  S
N1105      O1109   1.263       .  A
N1105      O1110   1.263       .  A
N1108      O1111   1.263       .  A
N1108      O1112   1.262       .  A
C1113      C1114   1.403       .  A
C1113      C1118   1.407       .  A
C1113      H1120   1.084       .  S
C1114      C1115   1.410       .  A
C1115      C1116   1.399       .  A
C1115      N1122   1.442       .  S
C1116      C1117   1.408       .  A
C1116      H1121   1.084       .  S
C1117      C1118   1.414       .  A
C1118      N1119   1.439       .  S
N1119      O1123   1.263       .  A
N1119      O1124   1.263       .  A
N1122      O1125   1.262       .  A
N1122      O1126   1.263       .  A
C1127      C1128   1.405       .  A
C1127      C1132   1.408       .  A
C1127      H1134   1.083       .  S
C1128      C1129   1.419       .  A
C1129      C1130   1.399       .  A
C1129      N1136   1.436       .  S
C1130      C1131   1.397       .  A
C1130      H1135   1.085       .  S
C1131      C1132   1.418       .  A
C1132      N1133   1.445       .  S
N1133      O1137   1.263       .  A
N1133      O1138   1.262       .  A
N1136      O1139   1.262       .  A
N1136      O1140   1.263       .  A
In1141     O1143   2.199       .  S
In1141     O1144   2.251       .  S
In1141     O1152   2.213       .  S
In1141     O1146   2.240       .  S
In1141     O1148   2.246       .  S
In1141     O1149   2.237       .  S
In1141     O1150   2.196       .  S
In1141     O1153   2.217       .  S
C1142      O1148   1.272       .  A
C1142      O1150   1.263       .  A
C1142      C1497   1.479       .  S
O1143      C1151   1.261       .  A
O1144      C1151   1.272       .  A
C1145      O1152   1.266       .  A
C1145      O1146   1.269       .  A
C1145      C1466   1.486       .  S
C1147      O1149   1.269       .  A
C1147      O1153   1.265       .  A
C1147      C1483   1.471       .  S
C1151      C1508   1.486       .  S
In1154     O1156   2.236       .  S
In1154     O1157   2.251   1_565  S
In1154     O1165   2.230   1_565  S
In1154     O1159   2.240   1_565  S
In1154     O1161   2.258       .  S
In1154     O1162   2.235   1_565  S
In1154     O1163   2.210       .  S
In1154     O1166   2.224       .  S
C1155      O1161   1.268       .  A
C1155      O1163   1.259       .  A
C1155      C1455   1.483       .  S
O1156      C1164   1.260       .  A
O1157      C1164   1.264   1_545  A
C1158      O1165   1.262       .  A
C1158      O1159   1.267       .  A
C1158      C1480   1.488       .  S
C1160      O1162   1.267   1_565  A
C1160      O1166   1.261       .  A
C1160      C1203   1.460       .  S
C1164      C1177   1.463       .  S
In1167     O1169   2.236       .  S
In1167     O1170   2.248   1_565  S
In1167     O1178   2.233   1_565  S
In1167     O1172   2.240   1_565  S
In1167     O1174   2.262       .  S
In1167     O1175   2.235   1_565  S
In1167     O1176   2.199       .  S
C1168      O1174   1.268       .  A
C1168      O1176   1.259       .  A
C1168      C1438   1.474       .  S
O1169      C1177   1.260       .  A
O1170      C1177   1.265   1_545  A
C1171      O1178   1.263       .  A
C1171      O1172   1.266       .  A
C1173      O1175   1.267   1_565  A
In1180     O1182   2.225       .  S
In1180     O1183   2.246       .  S
In1180     O1191   2.232       .  S
In1180     O1185   2.239       .  S
In1180     O1187   2.242       .  S
In1180     O1188   2.237       .  S
In1180     O1189   2.233       .  S
In1180     O1192   2.228       .  S
C1181      O1187   1.263       .  A
C1181      O1189   1.259       .  A
C1181      C1413   1.475       .  S
O1182      C1190   1.263       .  A
O1183      C1190   1.265       .  A
C1184      O1191   1.263       .  A
C1184      O1185   1.264       .  A
C1184      C1399   1.470       .  S
C1186      O1188   1.264       .  A
C1186      O1192   1.261       .  A
C1186      C1424   1.480       .  S
C1190      C1385   1.487       .  S
In1193     O1195   2.227       .  S
In1193     O1196   2.236       .  S
In1193     O1204   2.228       .  S
In1193     O1198   2.243       .  S
In1193     O1200   2.261   1_565  S
In1193     O1201   2.241       .  S
In1193     O1202   2.203   1_565  S
In1193     O1205   2.233       .  S
C1194      O1200   1.269       .  A
C1194      O1202   1.259       .  A
C1194      C1368   1.479       .  S
O1195      C1203   1.260       .  A
O1196      C1203   1.266       .  A
C1197      O1204   1.262       .  A
C1197      O1198   1.267       .  A
C1197      C1396   1.481       .  S
C1199      O1201   1.265       .  A
C1199      O1205   1.262       .  A
C1199      C1212   1.462       .  S
In1206     O1209   2.237       .  S
In1206     O1217   2.237       .  S
In1206     O1213   2.262   1_565  S
In1206     O1214   2.247       .  S
In1206     O1215   2.205   1_565  S
In1206     O1218   2.233       .  S
C1207      O1213   1.267       .  A
C1207      O1215   1.259       .  A
C1207      C1357   1.485       .  S
O1209      C1216   1.266       .  A
C1210      O1211   1.265       .  A
C1210      C1382   1.475       .  S
C1212      O1214   1.264       .  A
C1212      O1218   1.260       .  A
In1219     O1221   2.230       .  S
In1219     O1222   2.242       .  S
In1219     O1230   2.232       .  S
In1219     O1224   2.240       .  S
In1219     O1226   2.237       .  S
In1219     O1227   2.241       .  S
In1219     O1228   2.234       .  S
In1219     O1231   2.230       .  S
C1220      O1226   1.262       .  A
C1220      O1228   1.260       .  A
C1220      C1354   1.478       .  S
O1221      C1229   1.262       .  A
O1222      C1229   1.264       .  A
C1223      O1230   1.263       .  A
C1223      O1224   1.264       .  A
C1223      C1340   1.472       .  S
C1225      O1227   1.264       .  A
C1225      O1231   1.259       .  A
C1225      C1371   1.475       .  S
C1229      C1329   1.468       .  S
In1232     O1234   2.229       .  S
In1232     O1235   2.252       .  S
In1232     O1243   2.236       .  S
In1232     O1237   2.240       .  S
In1232     O1239   2.258       .  S
In1232     O1240   2.249       .  S
In1232     O1241   2.211       .  S
In1232     O1244   2.238       .  S
C1233      O1239   1.266       .  A
C1233      O1241   1.260       .  A
C1233      C1427   1.485       .  S
O1234      C1242   1.259       .  A
O1235      C1242   1.266       .  A
C1236      O1243   1.264       .  A
C1236      O1237   1.265       .  A
C1236      C1343   1.480       .  S
C1238      O1240   1.265       .  A
C1238      O1244   1.261       .  A
C1238      C1251   1.465       .  S
In1245     O1248   2.246       .  S
In1245     O1256   2.235       .  S
In1245     O1250   2.241       .  S
In1245     O1252   2.262       .  S
In1245     O1253   2.250       .  S
In1245     O1254   2.209       .  S
In1245     O1257   2.238       .  S
C1246      O1252   1.267       .  A
C1246      O1254   1.258       .  A
C1246      C1410   1.478       .  S
O1248      C1255   1.266       .  A
C1249      C1326   1.489       .  S
C1251      O1253   1.265       .  A
C1251      O1257   1.261       .  A
In1258     O1260   2.232       .  S
In1258     O1261   2.246       .  S
In1258     O1269   2.233       .  S
In1258     O1263   2.237       .  S
In1258     O1265   2.233       .  S
In1258     O1266   2.240       .  S
In1258     O1267   2.237       .  S
In1258     O1270   2.225       .  S
C1259      O1265   1.261       .  A
C1259      O1267   1.259       .  A
C1259      C1441   1.470       .  S
O1260      C1268   1.259       .  A
O1261      C1268   1.262       .  A
C1262      O1269   1.264       .  A
C1262      O1263   1.263       .  A
C1262      C1312   1.487       .  S
C1264      O1266   1.266       .  A
C1264      O1270   1.263       .  A
C1264      C1298   1.487       .  S
C1268      C1452   1.479       .  S
In1271     O1273   2.240       .  S
In1271     O1274   2.258       .  S
In1271     O1282   2.245       .  S
In1271     O1276   2.238       .  S
In1271     O1278   2.248       .  S
In1271     O1279   2.236       .  S
In1271     O1280   2.226       .  S
In1271     O1283   2.241       .  S
C1272      O1278   1.263       .  A
C1272      O1280   1.258       .  A
C1272      C1494   1.465       .  S
O1273      C1281   1.256       .  A
O1274      C1281   1.262       .  A
C1275      O1282   1.262       .  A
C1275      O1276   1.262       .  A
C1275      C1315   1.471       .  S
C1277      O1279   1.266       .  A
C1277      O1283   1.262       .  A
C1281      C1294   1.463       .  S
In1284     O1286   2.243       .  S
In1284     O1287   2.252       .  S
In1284     O1295   2.243       .  S
In1284     O1291   2.249       .  S
In1284     O1292   2.240       .  S
In1284     O1293   2.228       .  S
C1285      O1291   1.264       .  A
C1285      O1293   1.259       .  A
C1285      C1511   1.472       .  S
O1286      C1294   1.257       .  A
O1287      C1294   1.263       .  A
C1288      O1295   1.262   1_554  A
C1290      O1292   1.265       .  A
C1297      C1298   1.407       .  A
C1297      C1302   1.406       .  A
C1297      H1304   1.083       .  S
C1298      C1299   1.417       .  A
C1299      C1300   1.401       .  A
C1299      N1306   1.435       .  S
C1300      C1301   1.400       .  A
C1301      C1302   1.414       .  A
C1302      N1303   1.441       .  S
N1303      O1307   1.263       .  A
N1303      O1308   1.263       .  A
N1306      O1309   1.263       .  A
N1306      O1310   1.262       .  A
C1311      C1312   1.406       .  A
C1311      C1316   1.404       .  A
C1311      H1318   1.084       .  S
C1312      C1313   1.418       .  A
C1313      C1314   1.403       .  A
C1313      N1320   1.434       .  S
C1314      C1315   1.400       .  A
C1314      H1319   1.085       .  S
C1315      C1316   1.413       .  A
C1316      N1317   1.441       .  S
N1317      O1321   1.263       .  A
N1317      O1322   1.262       .  A
N1320      O1323   1.262       .  A
N1320      O1324   1.262       .  A
C1325      C1326   1.408       .  A
C1325      C1330   1.407       .  A
C1325      H1332   1.083   1_556  S
C1326      C1327   1.416       .  A
C1327      C1328   1.401       .  A
C1327      N1334   1.433       .  S
C1328      C1329   1.399       .  A
C1328      H1333   1.084       .  S
C1329      C1330   1.414       .  A
C1330      N1331   1.444       .  S
N1331      O1335   1.263       .  A
N1331      O1336   1.262       .  A
N1334      O1337   1.262       .  A
N1334      O1338   1.262       .  A
C1339      C1340   1.401       .  A
C1339      C1344   1.404       .  A
C1339      H1346   1.085       .  S
C1340      C1341   1.415       .  A
C1341      C1342   1.405       .  A
C1341      N1348   1.441       .  S
C1342      C1343   1.404       .  A
C1342      H1347   1.084       .  S
C1343      C1344   1.416       .  A
C1344      N1345   1.439       .  S
N1345      O1349   1.263       .  A
N1345      O1350   1.263       .  A
N1348      O1351   1.262       .  A
N1348      O1352   1.263       .  A
C1353      C1354   1.406       .  A
C1353      C1358   1.406       .  A
C1353      H1360   1.083       .  S
C1354      C1355   1.413       .  A
C1355      C1356   1.397       .  A
C1355      N1362   1.434       .  S
C1356      C1357   1.406       .  A
C1356      H1361   1.084       .  S
C1357      C1358   1.414       .  A
C1358      N1359   1.432   1_556  S
N1362      O1365   1.262       .  A
N1362      O1366   1.263       .  A
C1367      C1368   1.404       .  A
C1367      C1372   1.408       .  A
C1367      H1374   1.082       .  S
C1368      C1369   1.416       .  A
C1369      C1370   1.398       .  A
C1369      N1376   1.438       .  S
C1370      C1371   1.402       .  A
C1370      H1375   1.084       .  S
C1371      C1372   1.415       .  A
C1372      N1373   1.440       .  S
N1373      O1377   1.263       .  A
N1373      O1378   1.263       .  A
N1376      O1379   1.263       .  A
N1376      O1380   1.263       .  A
C1381      C1382   1.402       .  A
C1381      C1386   1.404       .  A
C1381      H1388   1.085       .  S
C1382      C1383   1.413       .  A
C1383      C1384   1.403       .  A
C1384      C1385   1.407       .  A
C1384      H1389   1.085       .  S
C1385      C1386   1.416       .  A
C1386      N1387   1.433       .  S
N1387      O1391   1.262       .  A
N1387      O1392   1.262       .  A
N1390      O1393   1.262       .  A
N1390      O1394   1.263       .  A
C1395      C1396   1.404       .  A
C1395      C1400   1.406       .  A
C1395      H1402   1.083       .  S
C1396      C1397   1.415       .  A
C1397      C1398   1.401       .  A
C1397      N1404   1.433       .  S
C1398      C1399   1.400       .  A
C1398      H1403   1.085       .  S
C1399      C1400   1.414       .  A
C1400      N1401   1.441       .  S
N1401      O1405   1.263       .  A
N1401      O1406   1.263       .  A
N1404      O1407   1.262       .  A
N1404      O1408   1.262       .  A
C1409      C1410   1.404       .  A
C1409      C1414   1.409       .  A
C1409      H1416   1.082       .  S
C1410      C1411   1.415       .  A
C1411      C1412   1.399       .  A
C1411      N1418   1.439       .  S
C1412      C1413   1.402       .  A
C1412      H1417   1.084       .  S
C1413      C1414   1.415       .  A
C1414      N1415   1.440       .  S
N1415      O1420   1.263       .  A
N1418      O1421   1.263       .  A
N1418      O1422   1.263       .  A
C1423      C1424   1.406       .  A
C1423      C1428   1.404       .  A
C1423      H1430   1.084       .  S
C1424      C1425   1.413       .  A
C1425      C1426   1.398       .  A
C1425      N1432   1.434       .  S
C1426      C1427   1.406       .  A
C1426      H1431   1.084       .  S
C1427      C1428   1.413       .  A
C1428      N1429   1.432       .  S
N1429      O1433   1.262       .  A
N1429      O1434   1.262       .  A
N1432      O1435   1.262       .  A
N1432      O1436   1.263       .  A
C1437      C1438   1.404       .  A
C1437      C1442   1.410       .  A
C1437      H1444   1.082       .  S
C1438      C1439   1.414       .  A
C1439      C1440   1.396       .  A
C1439      N1446   1.440       .  S
C1440      C1441   1.402       .  A
C1440      H1445   1.084       .  S
C1441      C1442   1.414       .  A
C1442      N1443   1.441       .  S
N1443      O1447   1.263       .  A
N1443      O1448   1.263       .  A
N1446      O1449   1.263       .  A
N1446      O1450   1.263       .  A
C1451      C1452   1.406       .  A
C1451      C1456   1.406       .  A
C1451      H1458   1.083       .  S
C1452      C1453   1.414       .  A
C1453      C1454   1.397       .  A
C1453      N1460   1.433       .  S
C1454      C1455   1.405       .  A
C1454      H1459   1.084       .  S
C1455      C1456   1.414       .  A
C1456      N1457   1.437       .  S
N1457      O1461   1.262       .  A
N1457      O1462   1.263       .  A
N1460      O1463   1.262       .  A
N1460      O1464   1.262       .  A
C1465      C1466   1.407       .  A
C1465      C1470   1.403       .  A
C1465      H1472   1.085       .  S
C1466      C1467   1.415       .  A
C1467      C1468   1.404       .  A
C1467      N1474   1.433       .  S
C1468      C1469   1.402       .  A
C1468      H1473   1.085       .  S
C1469      C1470   1.413       .  A
N1471      O1475   1.263       .  A
N1471      O1476   1.263       .  A
N1474      O1477   1.262       .  A
N1474      O1478   1.262       .  A
C1479      C1480   1.406       .  A
C1479      C1484   1.405       .  A
C1479      H1486   1.084       .  S
C1480      C1481   1.419       .  A
C1481      C1482   1.403       .  A
C1481      N1488   1.434       .  S
C1482      C1483   1.399       .  A
C1482      H1487   1.085       .  S
C1483      C1484   1.413       .  A
C1484      N1485   1.441       .  S
N1485      O1489   1.263       .  A
N1485      O1490   1.263       .  A
N1488      O1491   1.263       .  A
N1488      O1492   1.262       .  A
C1493      C1494   1.403       .  A
C1493      C1498   1.407       .  A
C1493      H1500   1.084       .  S
C1494      C1495   1.410       .  A
C1495      C1496   1.399       .  A
C1495      N1502   1.442       .  S
C1496      C1497   1.408       .  A
C1496      H1501   1.084       .  S
C1497      C1498   1.414       .  A
C1498      N1499   1.439       .  S
N1499      O1503   1.263       .  A
N1499      O1504   1.263       .  A
N1502      O1505   1.262       .  A
N1502      O1506   1.263       .  A
C1507      C1508   1.405       .  A
C1507      C1512   1.408       .  A
C1507      H1514   1.083       .  S
C1508      C1509   1.419       .  A
C1509      C1510   1.399       .  A
C1509      N1516   1.436       .  S
C1510      C1511   1.397       .  A
C1510      H1515   1.085       .  S
C1511      C1512   1.418       .  A
C1512      N1513   1.445       .  S
N1513      O1517   1.263       .  A
N1513      O1518   1.262       .  A
N1516      O1519   1.262       .  A
N1516      O1520   1.263       .  A
