geometry optimzed in LAMMPS
_audit_creation_date              2020-11-30 
_audit_creation_method            'lammps2cif' 
_symmetry_space_group_name_H-M    'P1' 
_symmetry_Int_Tables_number       1 
_symmetry_cell_setting            triclinic 
loop_ 
_symmetry_equiv_pos_as_xyz 
  x,y,z 
_cell_length_a                    44.04766801 
_cell_length_b                    44.71189095340703 
_cell_length_c                    40.162153462866165 
_cell_angle_alpha                 89.95270537176248 
_cell_angle_beta                  90.1111083619839 
_cell_angle_gamma                 119.7892555534779 
loop_ 
_atom_site_label 
_atom_site_type_symbol 
_atom_site_fract_x 
_atom_site_fract_y 
_atom_site_fract_z 
_atom_site_charge 
O1          O  0.45911506  0.48226938  0.46682834    -0.74000
O2          O  0.52542316  0.53900494  0.04165425    -0.74000
O3          O  0.52064235  0.54024485  0.47712194    -0.74000
O4          O  0.46204211  0.48204842  0.03423235    -0.74100
O5          O  0.48795787  0.45011808  0.03707418    -0.74000
O6          O  0.54805061  0.50976638  0.47361544    -0.74000
O7          O  0.55229605  0.50788688  0.04133772    -0.74000
O8          O  0.48575868  0.45095532  0.46549248    -0.74000
Ni9        Ni  0.48492162  0.50721413  0.50528110     1.25400
Ni10       Ni  0.52339515  0.47956157  0.00539357     1.25400
C11         C  0.46360408  0.45875971  0.45346601     0.88200
C12         C  0.54859172  0.53243789  0.05329750     0.88200
C13         C  0.54534920  0.53614513  0.46549649     0.88200
C14         C  0.46328718  0.45595971  0.04558176     0.88300
O15         O  0.94948387  0.52787846  0.03092690    -0.74000
O16         O  0.95276607  0.46384175  0.46822422    -0.74000
O17         O  0.94521182  0.46516894  0.03136955    -0.74000
O18         O  0.95727462  0.52674028  0.46661072    -0.74100
O19         O  0.01536930  0.55250835  0.47033714    -0.74000
O20         O  0.00333517  0.49014133  0.03401782    -0.74000
O21         O  0.01099318  0.48975119  0.46937295    -0.74000
O22         O  0.00754839  0.55270758  0.03425867    -0.74000
Ni23       Ni  0.94731016  0.49634603  0.99714947     1.25400
Ni24       Ni  0.00952144  0.52321604  0.00046521     1.25400
C25         C  0.97862732  0.55025114  0.04389146     0.88200
C26         C  0.98147143  0.46666005  0.45755782     0.88200
C27         C  0.97295308  0.46715457  0.04393030     0.88200
C28         C  0.98774279  0.55024224  0.45722454     0.88300
O29         O  0.52312686  0.01189727  0.03143861    -0.74000
O30         O  0.45914690  0.01029997  0.46035808    -0.74000
O31         O  0.46176141  0.01159658  0.02919168    -0.74000
O32         O  0.52111616  0.01169657  0.46283566    -0.74100
O33         O  0.49291289  0.95424543  0.46142359    -0.74000
O34         O  0.43305858  0.95420343  0.03132277    -0.74000
O35         O  0.43043324  0.95285163  0.45978977    -0.74000
O36         O  0.49528759  0.95447208  0.03264380    -0.74000
Ni37       Ni  0.49400645  0.01283802  0.99678564     1.25400
Ni38       Ni  0.46326115  0.95133815  0.99793489     1.25400
C39         C  0.51948484  0.98376438  0.04336812     0.88200
C40         C  0.43503840  0.98170463  0.44854503     0.88200
C41         C  0.43728533  0.98336108  0.04120773     0.88200
C42         C  0.51773440  0.98347143  0.45143439     0.88300
C43         C  0.03952884  0.76758938  0.25357213     0.87000
C44         C  0.03399910  0.74473703  0.28397708    -0.53300
C45         C  0.00504266  0.71247538  0.28226984     0.09900
C46         C  0.98340269  0.70653413  0.24993165     0.20800
C47         C  0.03911370  0.74603784  0.22387879    -0.54000
C48         C  0.01006918  0.71407966  0.22162029     0.10000
C49         C  0.00522654  0.76845135  0.25046561    -0.53500
C50         C  0.97562475  0.73674525  0.24830831     0.10600
H51         H  0.05215049  0.75344627  0.30476731     0.15100
H52         H  0.95988512  0.68059123  0.24829090     0.00800
H53         H  0.06045261  0.75558543  0.20610057     0.15400
H54         H  0.00419801  0.79210447  0.25021988     0.15200
C55         C  0.94892129  0.26007241  0.24845341     0.87000
C56         C  0.95038683  0.28148881  0.27888090    -0.53300
C57         C  0.97713573  0.31503999  0.27822500     0.09900
C58         C  0.00040485  0.32364422  0.24695725     0.20800
C59         C  0.94781285  0.28068053  0.21841725    -0.54000
C60         C  0.97464761  0.31402850  0.21750354     0.10000
C61         C  0.98522150  0.26338688  0.24701286    -0.53500
C62         C  0.01222728  0.29650697  0.24606405     0.10600
H63         H  0.93153134  0.27071415  0.29895020     0.15100
H64         H  0.02231345  0.35061344  0.24611556     0.00800
H65         H  0.92753861  0.26962719  0.19949197     0.15400
H66         H  0.98949039  0.24151400  0.24711995     0.15200
C67         C  0.24005472  0.30777515  0.24779357     0.87000
C68         C  0.26489037  0.33222892  0.27439526    -0.53300
C69         C  0.29653482  0.33355035  0.27590916     0.09900
C70         C  0.30022790  0.30962839  0.25035915     0.20800
C71         C  0.26079117  0.31935657  0.21533740    -0.54000
C72         C  0.29260676  0.32092393  0.21651463     0.10000
C73         C  0.23720799  0.27302961  0.25582759    -0.53500
C74         C  0.26840843  0.27330116  0.25643627     0.10600
H75         H  0.25798508  0.34689327  0.29108482     0.15100
H76         H  0.32592364  0.31084921  0.25133960     0.00800
H77         H  0.25093657  0.32611725  0.19351436     0.15400
H78         H  0.21212441  0.24985306  0.25927227     0.15200
C79         C  0.28608535  0.06186505  0.24470344     0.87000
C80         C  0.30518118  0.05758464  0.27443389    -0.53300
C81         C  0.30746970  0.02814673  0.27422672     0.09900
C82         C  0.28938711  0.00494463  0.24356386     0.20800
C83         C  0.30489873  0.05848788  0.21422308    -0.54000
C84         C  0.30716590  0.02902854  0.21333579     0.10000
C85         C  0.25026622  0.02886243  0.24441746    -0.53500
C86         C  0.25142399  0.99881299  0.24391796     0.10600
H87         H  0.31633795  0.07693855  0.29388865     0.15100
H88         H  0.29114736  0.98109891  0.24301597     0.00800
H89         H  0.31605218  0.07833836  0.19522655     0.15400
H90         H  0.22582896  0.02903146  0.24457976     0.15200
C91         C  0.73488732  0.03171367  0.24830159     0.87000
C92         C  0.71165063  0.02581874  0.21809363    -0.53300
C93         C  0.68076199  0.99528215  0.21813051     0.09900
C94         C  0.67666958  0.97243203  0.24876749     0.20800
C95         C  0.71167948  0.02644901  0.27836041    -0.54000
C96         C  0.68076308  0.99584016  0.27890090     0.10000
C97         C  0.74056055  0.00071085  0.24888888    -0.53500
C98         C  0.71041312  0.96934453  0.24924200     0.10600
H99         H  0.71917751  0.04497839  0.19856167     0.15100
H100        H  0.65182787  0.94749157  0.24879398     0.00800
H101        H  0.71959023  0.04625384  0.29716761     0.15400
H102        H  0.76626229  0.00330268  0.24958384     0.15200
C103        C  0.70987454  0.74827450  0.25988473     0.87000
C104        C  0.68825235  0.72546870  0.23103771    -0.53300
C105        C  0.68601969  0.69396418  0.22974230     0.09900
C106        C  0.70670310  0.68824821  0.25773008     0.20800
C107        C  0.69420465  0.72639546  0.29101406    -0.54000
C108        C  0.69174695  0.69466112  0.29013304     0.10000
C109        C  0.74572977  0.75066500  0.25610966    -0.53500
C110        C  0.74442245  0.71928443  0.25471066     0.10600
H111        H  0.67524367  0.73368626  0.21327205     0.15100
H112        H  0.70484863  0.66259777  0.25670959     0.00800
H113        H  0.68520569  0.73545968  0.31174753     0.15400
H114        H  0.76994176  0.77494495  0.25492718     0.15200
C115        C  0.68910738  0.82345221  0.26062365     0.16400
C116        C  0.67277050  0.84367732  0.26022037    -0.32600
C117        C  0.69415033  0.87947829  0.25626088     0.20800
C118        C  0.73006516  0.89412217  0.25306837     0.03000
C119        C  0.74632642  0.87400536  0.25361519    -0.22400
C120        C  0.72504138  0.83835721  0.25735606     0.12200
S121        S  0.66797945  0.77969524  0.26418837    -0.06000
C122        C  0.70798112  0.78130603  0.26086010    -0.09500
C123        C  0.73609569  0.81451608  0.25757614    -0.26100
S124        S  0.75167007  0.93753867  0.24839886    -0.03300
C125        C  0.71206840  0.93676760  0.25078847    -0.16700
C126        C  0.68354870  0.90381393  0.25495215    -0.14700
H127        H  0.64467130  0.83199400  0.26261064     0.20600
H128        H  0.77440638  0.88566786  0.25096416     0.16700
H129        H  0.76314024  0.82122343  0.25480559     0.19200
H130        H  0.65665114  0.89786189  0.25717553     0.12500
C131        C  0.30125562  0.15571580  0.24879486     0.16400
C132        C  0.31516983  0.19166834  0.24956465    -0.32600
C133        C  0.29172234  0.20410041  0.25412137     0.20800
C134        C  0.25622609  0.18162803  0.25802318     0.03000
C135        C  0.24239909  0.14589510  0.25714149    -0.22400
C136        C  0.26567509  0.13352995  0.25227110     0.12200
S137        S  0.32488380  0.13512666  0.24385094    -0.06000
C138        C  0.28627120  0.09604485  0.24601016    -0.09500
C139        C  0.25688999  0.09955692  0.25060806    -0.26100
S140        S  0.23186533  0.20118615  0.26263711    -0.03300
C141        C  0.26964690  0.24060164  0.25864005    -0.16700
C142        C  0.29967011  0.23806024  0.25451673    -0.14700
H143        H  0.34294988  0.20912931  0.24655609     0.20600
H144        H  0.21457501  0.12843901  0.25987681     0.16700
H145        H  0.23032537  0.07876492  0.25335897     0.19200
H146        H  0.32576733  0.25960133  0.25097207     0.12500
C147        C  0.14598159  0.29084570  0.23173660     0.16400
C148        C  0.11082588  0.27659980  0.22276953    -0.32600
C149        C  0.09318576  0.29363259  0.23345894     0.20800
C150        C  0.10984424  0.32401703  0.25154365     0.03000
C151        C  0.14522857  0.33845324  0.26032472    -0.22400
C152        C  0.16267674  0.32082122  0.25039214     0.12200
S153        S  0.17140416  0.27330500  0.22207021    -0.06000
C154        C  0.20483702  0.30583454  0.24466006    -0.09500
C155        C  0.19650232  0.32967687  0.25781175    -0.26100
S156        S  0.08308432  0.33985234  0.26294722    -0.03300
C157        C  0.04901884  0.30450393  0.24402746    -0.16700
C158        C  0.05848021  0.28244732  0.22895860    -0.14700
H159        H  0.09754986  0.25279349  0.20875511     0.20600
H160        H  0.15830116  0.36183623  0.27497431     0.16700
H161        H  0.21399164  0.35249717  0.27177895     0.19200
H162        H  0.04072740  0.25894281  0.21593197     0.12500
C163        C  0.80651052  0.12829480  0.24926111     0.16400
C164        C  0.82488495  0.16439002  0.25041831    -0.32600
C165        C  0.86150253  0.18095949  0.24973111     0.20800
C166        C  0.87898671  0.16243774  0.24792507     0.03000
C167        C  0.86060420  0.12632440  0.24682587    -0.22400
C168        C  0.82396685  0.10974416  0.24761182     0.12200
S169        S  0.76215647  0.10352085  0.24972978    -0.06000
C170        C  0.76687957  0.06741823  0.24813795    -0.09500
C171        C  0.80149654  0.07483526  0.24694569    -0.26100
S172        S  0.92337325  0.18732431  0.24701283    -0.03300
C173        C  0.91856264  0.22338763  0.24906321    -0.16700
C174        C  0.88398290  0.21584429  0.25043930    -0.14700
H175        H  0.81127646  0.17886520  0.25175235     0.20600
H176        H  0.87420269  0.11186357  0.24542129     0.16700
H177        H  0.81021396  0.05622992  0.24560089     0.19200
H178        H  0.87582279  0.23498536  0.25162453     0.12500
C179        C  0.15877888  0.91808383  0.24426776     0.16400
C180        C  0.12255008  0.89540131  0.24392516    -0.32600
C181        C  0.11058581  0.86032250  0.24946962     0.20800
C182        C  0.13369707  0.84831214  0.25495711     0.03000
C183        C  0.17010917  0.87112072  0.25538555    -0.22400
C184        C  0.18214272  0.90638089  0.24992969     0.12200
S185        S  0.17796070  0.96137632  0.23845046    -0.06000
C186        C  0.21844121  0.96456218  0.24401932    -0.09500
C187        C  0.21649172  0.93291005  0.24971893    -0.26100
S188        S  0.11366113  0.80459889  0.26010199    -0.03300
C189        C  0.07348911  0.80226802  0.25488072    -0.16700
C190        C  0.07626238  0.83434506  0.24954191    -0.14700
H191        H  0.10443464  0.90473603  0.23950182     0.20600
H192        H  0.18822821  0.86177727  0.25969443     0.16700
H193        H  0.23876636  0.92941332  0.25415153     0.19200
H194        H  0.05475557  0.83890743  0.24487076     0.12500
C195        C  0.82181038  0.70068361  0.24916997     0.16400
C196        C  0.84505647  0.68763914  0.25210598    -0.32600
C197        C  0.88088014  0.71039157  0.24580085     0.20800
C198        C  0.89246438  0.74410927  0.23611538     0.03000
C199        C  0.86931396  0.75678430  0.23250526    -0.22400
C200        C  0.83400085  0.73453140  0.23970945     0.12200
S201        S  0.77791005  0.67881657  0.25832878    -0.06000
C202        C  0.77641147  0.71608615  0.25015515    -0.09500
C203        C  0.80837075  0.74336469  0.23995635    -0.26100
S204        S  0.93649751  0.76855684  0.23160991    -0.03300
C205        C  0.94039311  0.73351770  0.24365581    -0.16700
C206        C  0.90835263  0.70397025  0.24983901    -0.14700
H207        H  0.83586064  0.66139986  0.26011294     0.20600
H208        H  0.87870042  0.78338291  0.22562980     0.16700
H209        H  0.81314992  0.76880588  0.23341022     0.19200
H210        H  0.90533779  0.67963433  0.25821371     0.12500
C211        C  0.60587529  0.96656003  0.15314120     0.16400
C212        C  0.57714787  0.94938793  0.13132912    -0.32600
C213        C  0.56973774  0.96972981  0.10952285     0.20800
C214        C  0.59004101  0.00537484  0.10966425     0.03000
C215        C  0.61841058  0.02231326  0.13126329    -0.22400
C216        C  0.62575541  0.00215763  0.15277388     0.12200
S217        S  0.62004274  0.94751000  0.18179298    -0.06000
C218        C  0.65329333  0.98811213  0.19268616    -0.09500
C219        C  0.65244804  0.01450792  0.17523923    -0.26100
S220        S  0.57746555  0.02591211  0.08199774    -0.03300
C221        C  0.54410630  0.98622763  0.06964693    -0.16700
C222        C  0.54312128  0.95846206  0.08635773    -0.14700
H223        H  0.56136116  0.92155998  0.13133415     0.20600
H224        H  0.63421107  0.05016465  0.13127081     0.16700
H225        H  0.67024426  0.04175625  0.17887512     0.19200
H226        H  0.52401511  0.93168586  0.08191107     0.12500
C227        C  0.60307473  0.96725311  0.34063624     0.16400
C228        C  0.57147076  0.95099040  0.35868605    -0.32600
C229        C  0.56718320  0.96981340  0.38467979     0.20800
C230        C  0.59313260  0.00317059  0.39203888     0.03000
C231        C  0.62449234  0.01901344  0.37442891    -0.22400
C232        C  0.62873659  0.00035113  0.34877945     0.12200
S233        S  0.61399003  0.95024564  0.30739466    -0.06000
C234        C  0.65361118  0.98826568  0.30489672    -0.09500
C235        C  0.65734234  0.01232150  0.32882137    -0.26100
S236        S  0.58321147  0.02267148  0.42307995    -0.03300
C237        C  0.54353270  0.98551098  0.42693001    -0.16700
C238        C  0.53849372  0.95930012  0.40504448    -0.14700
H239        H  0.55110169  0.92511221  0.35257182     0.20600
H240        H  0.64468777  0.04508011  0.38024128     0.16700
H241        H  0.67945075  0.03794139  0.33165183     0.19200
H242        H  0.51497963  0.93434531  0.40368622     0.12500
C243        C  0.37572930  0.97612463  0.37481395     0.16400
C244        C  0.35319497  0.96741078  0.34703712    -0.32600
C245        C  0.34792957  0.99349341  0.33309937     0.20800
C246        C  0.36449335  0.02646021  0.34636910     0.03000
C247        C  0.38689167  0.03510585  0.37370305    -0.22400
C248        C  0.39205779  0.00932430  0.38749859     0.12200
S249        S  0.38610465  0.94892912  0.39596443    -0.06000
C250        C  0.41280395  0.98305207  0.42164648    -0.09500
C251        C  0.41313660  0.01340805  0.41405391    -0.26100
S252        S  0.35493541  0.05452335  0.32715542    -0.03300
C253        C  0.32766157  0.02184986  0.30049315    -0.16700
C254        C  0.32675465  0.99067103  0.30642773    -0.14700
H255        H  0.34032008  0.94157620  0.33687773     0.20600
H256        H  0.39971497  0.06094039  0.38390708     0.16700
H257        H  0.42829468  0.03752038  0.42725181     0.19200
H258        H  0.31111390  0.96715725  0.29255195     0.12500
C259        C  0.36612343  0.02900401  0.14226824     0.16400
C260        C  0.39053580  0.03825389  0.11653916    -0.32600
C261        C  0.39411458  0.01203799  0.10130533     0.20800
C262        C  0.37419215  0.97791843  0.11101268     0.03000
C263        C  0.34960875  0.96860415  0.13697056    -0.22400
C264        C  0.34613530  0.99504090  0.15246394     0.12200
S265        S  0.35827438  0.05736764  0.16344761    -0.06000
C266        C  0.32742371  0.02339993  0.18676390    -0.09500
C267        C  0.32392335  0.99164238  0.17824346    -0.26100
S268        S  0.38319476  0.95027263  0.08906569    -0.03300
C269        C  0.41426873  0.98528035  0.06695037    -0.16700
C270        C  0.41694917  0.01637978  0.07623957    -0.14700
H271        H  0.40620439  0.06485743  0.10877669     0.20600
H272        H  0.33403303  0.94203288  0.14481106     0.16700
H273        H  0.30584887  0.96736553  0.18983622     0.19200
H274        H  0.43501451  0.04112947  0.06538855     0.12500
C275        C  0.01650047  0.65918240  0.15094511     0.16400
C276        C  0.02823339  0.64557588  0.12598602    -0.32600
C277        C  0.00309717  0.61724747  0.10799688     0.20800
C278        C  0.96766405  0.60308344  0.11432950     0.03000
C279        C  0.95583502  0.61672853  0.13953641    -0.22400
C280        C  0.98117745  0.64510154  0.15781656     0.12200
S281        S  0.04329754  0.69362232  0.17495719    -0.06000
C282        C  0.00678564  0.68950871  0.19498147    -0.09500
C283        C  0.97537684  0.66230410  0.18336093    -0.26100
S284        S  0.94162742  0.56865217  0.08929389    -0.03300
C285        C  0.97903374  0.57337440  0.07047294    -0.16700
C286        C  0.00975538  0.60038271  0.08307298    -0.14700
H287        H  0.05586342  0.65661575  0.12082896     0.20600
H288        H  0.92821410  0.60571273  0.14468872     0.16700
H289        H  0.94976238  0.65588492  0.19253767     0.19200
H290        H  0.03572545  0.60729386  0.07452059     0.12500
C291        C  0.01260437  0.62281525  0.39305529     0.16400
C292        C  0.03023590  0.65249309  0.37346731    -0.32600
C293        C  0.01084306  0.65886341  0.34965386     0.20800
C294        C  0.97541685  0.63656823  0.34507832     0.03000
C295        C  0.95758466  0.60668581  0.36486600    -0.22400
C296        C  0.97704017  0.60044862  0.38910569     0.12200
S297        S  0.03196144  0.61100207  0.42314231    -0.06000
C298        C  0.99178134  0.57546690  0.43116232    -0.09500
C299        C  0.96482324  0.57315669  0.41112463    -0.26100
S300        S  0.95726582  0.64933386  0.31412504    -0.03300
C301        C  0.99781353  0.68539992  0.30785227    -0.16700
C302        C  0.02370334  0.68661406  0.32862779    -0.14700
H303        H  0.05797824  0.66999631  0.37672701     0.20600
H304        H  0.92985833  0.58917028  0.36157665     0.16700
H305        H  0.93789445  0.55258485  0.41245041     0.19200
H306        H  0.05092965  0.70651049  0.32819601     0.12500
C307        C  0.96227216  0.39602138  0.39297548     0.16400
C308        C  0.94665525  0.36623286  0.37335594    -0.32600
C309        C  0.96668784  0.36321386  0.34795297     0.20800
C310        C  0.00075163  0.38885595  0.34189240     0.03000
C311        C  0.01658715  0.41883849  0.36171613    -0.22400
C312        C  0.99655969  0.42167424  0.38759903     0.12200
S313        S  0.94171439  0.40417762  0.42463424    -0.06000
C314        C  0.97970970  0.44252277  0.43145436    -0.09500
C315        C  0.00690437  0.44847747  0.40992613    -0.26100
S316        S  0.02002406  0.37982208  0.30928420    -0.03300
C317        C  0.98190211  0.34078239  0.30431715    -0.16700
C318        C  0.95580714  0.33583237  0.32670537    -0.14700
H319        H  0.91995547  0.34616405  0.37776337     0.20600
H320        H  0.04325273  0.43893641  0.35723966     0.16700
H321        H  0.03250989  0.47134736  0.41021974     0.19200
H322        H  0.92985810  0.31353474  0.32739724     0.12500
C323        C  0.95270349  0.39714203  0.10977943     0.16400
C324        C  0.93723216  0.36858757  0.13111004    -0.32600
C325        C  0.95939627  0.36259222  0.15174410     0.20800
C326        C  0.99535319  0.38415791  0.15144750     0.03000
C327        C  0.01086441  0.41261600  0.12995735    -0.22400
C328        C  0.98870193  0.41849347  0.10913918     0.12200
S329        S  0.93037964  0.40882611  0.08276555    -0.06000
C330        C  0.96999822  0.44265780  0.07011490    -0.09500
C331        C  0.99877599  0.44462098  0.08640083    -0.26100
S332        S  0.01747288  0.37290305  0.17917741    -0.03300
C333        C  0.97785522  0.33856675  0.19107896    -0.16700
C334        C  0.94924151  0.33630177  0.17421800    -0.14700
H335        H  0.90913539  0.35177650  0.13162068     0.20600
H336        H  0.03895185  0.42947290  0.12952351     0.16700
H337        H  0.02568622  0.46410555  0.08179119     0.19200
H338        H  0.92227442  0.31688842  0.17865444     0.12500
C339        C  0.61407262  0.58320108  0.12336319     0.16400
C340        C  0.64112338  0.59738763  0.14721196    -0.32600
C341        C  0.64362546  0.62434753  0.16727902     0.20800
C342        C  0.62018837  0.63632305  0.16353592     0.03000
C343        C  0.59343538  0.62228422  0.13991270    -0.22400
C344        C  0.59099562  0.59563267  0.12000506     0.12200
S345        S  0.60600248  0.55041922  0.09632851    -0.06000
C346        C  0.57128950  0.55383716  0.08067073    -0.09500
C347        C  0.56664698  0.57910581  0.09565845    -0.26100
S348        S  0.62739062  0.66939383  0.18896345    -0.03300
C349        C  0.66299838  0.66802068  0.20497213    -0.16700
C350        C  0.66832062  0.64237249  0.19147298    -0.14700
H351        H  0.65939232  0.58800215  0.14986895     0.20600
H352        H  0.57538380  0.63191698  0.13702424     0.16700
H353        H  0.54641066  0.58510401  0.08911772     0.19200
H354        H  0.68960079  0.63796689  0.19811626     0.12500
C355        C  0.59820448  0.60963370  0.40431138     0.16400
C356        C  0.61016524  0.63865244  0.38401554    -0.32600
C357        C  0.63502141  0.64386859  0.35977320     0.20800
C358        C  0.64778486  0.62138890  0.35567650     0.03000
C359        C  0.63580593  0.59209252  0.37625528    -0.22400
C360        C  0.61057858  0.58671874  0.40067993     0.12200
S361        S  0.56700435  0.59868769  0.43398033    -0.06000
C362        C  0.56989694  0.56234372  0.44190531    -0.09500
C363        C  0.59443929  0.55936339  0.42250728    -0.26100
S364        S  0.67765443  0.63290907  0.32388455    -0.03900
C365        C  0.67292226  0.66850801  0.31660918    -0.16700
C366        C  0.64899176  0.67047763  0.33763660    -0.14700
H367        H  0.60017514  0.65629720  0.38676251     0.20600
H368        H  0.64536786  0.57415753  0.37313279     0.16700
H369        H  0.59934952  0.53793570  0.42356253     0.19200
H370        H  0.64138354  0.69003681  0.33663596     0.12500
C371        C  0.41440032  0.40380967  0.37721794     0.16400
C372        C  0.40005195  0.37920254  0.35162658    -0.32600
C373        C  0.37142004  0.37690928  0.33391790     0.20800
C374        C  0.35831074  0.39868086  0.34099794     0.03000
C375        C  0.37298625  0.42360304  0.36606474    -0.22400
C376        C  0.40100273  0.42537259  0.38416323     0.12200
S377        S  0.44749842  0.40917664  0.40328313    -0.06000
C378        C  0.44281941  0.44047840  0.42388980    -0.09500
C379        C  0.41726004  0.44652902  0.41073155    -0.26100
S380        S  0.32237122  0.39072729  0.31850229    -0.03300
C381        C  0.32415036  0.35697560  0.29954192    -0.16700
C382        C  0.35211581  0.35307087  0.30982032    -0.14700
H383        H  0.41002565  0.36192048  0.34647387     0.20600
H384        H  0.36227967  0.44013798  0.37193334     0.16700
H385        H  0.41038901  0.46493574  0.42053252     0.19200
H386        H  0.35720238  0.33301569  0.30136866     0.12500
C387        C  0.38341528  0.40453063  0.10107956     0.16400
C388        C  0.35190903  0.39245611  0.11814718    -0.32600
C389        C  0.34467538  0.36868619  0.14371579     0.20800
C390        C  0.36749207  0.35693015  0.15190407     0.03000
C391        C  0.39893848  0.36850380  0.13420475    -0.22400
C392        C  0.40645558  0.39280593  0.10866302     0.12200
S393        S  0.39752396  0.43536733  0.07115796    -0.06000
C394        C  0.43511859  0.43277155  0.06828254    -0.09500
C395        C  0.43631577  0.40879970  0.08952396    -0.26100
S396        S  0.35451113  0.33005622  0.18575213    -0.03300
C397        C  0.31815930  0.33507707  0.18876291    -0.16700
C398        C  0.31644933  0.35614381  0.16436295    -0.14700
H399        H  0.33423391  0.40204451  0.11241915     0.20600
H400        H  0.41714959  0.35980378  0.14070222     0.16700
H401        H  0.45812674  0.40413293  0.09154124     0.19200
H402        H  0.29658999  0.36359701  0.16260311     0.12500
O403        O  0.46906921  0.48751461  0.96749467    -0.74000
O404        O  0.51278040  0.53003955  0.54356178    -0.74000
O405        O  0.53228105  0.54484761  0.97524872    -0.74000
O406        O  0.45079279  0.47210085  0.53314948    -0.74100
O407        O  0.47894520  0.44218488  0.53316956    -0.74000
O408        O  0.55674222  0.51153137  0.97367189    -0.74000
O409        O  0.54149881  0.50074045  0.54118237    -0.74000
O410        O  0.49287959  0.45366249  0.96930707    -0.74000
Ni411      Ni  0.49630418  0.51442881  0.00464322     1.25400
Ni412      Ni  0.51457146  0.47475552  0.50330576     1.25400
C413        C  0.47149023  0.46194764  0.95629462     0.88200
C414        C  0.53609092  0.52351517  0.55491860     0.88200
C415        C  0.55596998  0.53870392  0.96465530     0.88200
C416        C  0.45336385  0.44617512  0.54273397     0.88300
O417        O  0.95401805  0.52620839  0.53443755    -0.74000
O418        O  0.94913489  0.46642224  0.96394736    -0.74000
O419        O  0.94981815  0.46350210  0.53583842    -0.74000
O420        O  0.95370751  0.52941896  0.96297806    -0.74100
O421        O  0.01176901  0.55464702  0.96691051    -0.74000
O422        O  0.00790004  0.48786403  0.53745455    -0.74000
O423        O  0.00729235  0.49181601  0.96628257    -0.74000
O424        O  0.01203865  0.55066900  0.53790512    -0.74000
Ni425      Ni  0.95142506  0.49417024  0.50117925     1.25400
Ni426      Ni  0.01363949  0.52107671  0.50387197     1.25400
C427        C  0.98320062  0.54859159  0.54728604     0.88200
C428        C  0.97793583  0.46881975  0.95410634     0.88200
C429        C  0.97760714  0.46522317  0.54802062     0.88200
C430        C  0.98434142  0.55274529  0.95380017     0.88300
O431        O  0.51857630  0.01148849  0.52987988    -0.74000
O432        O  0.46320770  0.00992198  0.96201042    -0.74000
O433        O  0.45686336  0.00984049  0.52740616    -0.74000
O434        O  0.52428607  0.01038186  0.96449441    -0.74100
O435        O  0.49557586  0.95292732  0.96439368    -0.74000
O436        O  0.42909889  0.95241085  0.52825732    -0.74000
O437        O  0.43359660  0.95248979  0.96294081    -0.74000
O438        O  0.49167602  0.95407191  0.52960052    -0.74000
Ni439      Ni  0.48984754  0.01274613  0.49506209     1.25400
Ni440      Ni  0.45995959  0.95122732  0.49472577     1.25400
C441        C  0.51489146  0.98324431  0.54150357     0.88200
C442        C  0.43895845  0.98118717  0.95057494     0.88200
C443        C  0.43284239  0.98107656  0.53900112     0.88200
C444        C  0.52019310  0.98180899  0.95337142     0.88300
C445        C  0.03941719  0.77026667  0.74989065     0.87000
C446        C  0.03397007  0.74761918  0.78039625    -0.53300
C447        C  0.00484926  0.71554186  0.77900709     0.09900
C448        C  0.98308267  0.70940774  0.74683440     0.20800
C449        C  0.03864049  0.74843772  0.72026937    -0.54000
C450        C  0.00962815  0.71648323  0.71854898     0.10000
C451        C  0.00520148  0.77142241  0.74681490    -0.53500
C452        C  0.97544671  0.73971471  0.74519628     0.10600
H453        H  0.05227267  0.75640577  0.80107143     0.15100
H454        H  0.95951155  0.68347696  0.74534996     0.00800
H455        H  0.05999228  0.75738205  0.70254134     0.15400
H456        H  0.00435018  0.79518950  0.74603117     0.15200
C457        C  0.94735745  0.25560597  0.75340026     0.87000
C458        C  0.94913058  0.27704715  0.78399521    -0.53300
C459        C  0.97669461  0.31024893  0.78381736     0.09900
C460        C  0.00041439  0.31852119  0.75291577     0.20800
C461        C  0.94753091  0.27713073  0.72354471    -0.54000
C462        C  0.97516631  0.31009831  0.72308677     0.10000
C463        C  0.98326525  0.25775292  0.75241845    -0.53500
C464        C  0.01109294  0.29045612  0.75232049     0.10600
H465        H  0.92982982  0.26671548  0.80374560     0.15100
H466        H  0.02289347  0.34522053  0.75246999     0.00800
H467        H  0.92737254  0.26707324  0.70445500     0.15400
H468        H  0.98672676  0.23538771  0.75277859     0.15200
C469        C  0.24165953  0.30395016  0.75733685     0.87000
C470        C  0.26719228  0.32961507  0.78307697    -0.53300
C471        C  0.29932840  0.33192853  0.78349629     0.09900
C472        C  0.30310402  0.30836411  0.75779757     0.20800
C473        C  0.26134916  0.31571540  0.72408223    -0.54000
C474        C  0.29381555  0.31849519  0.72413025     0.10000
C475        C  0.24063611  0.26986274  0.76545275    -0.53500
C476        C  0.27261116  0.27190913  0.76516426     0.10600
H477        H  0.26057083  0.34423415  0.80012280     0.15100
H478        H  0.32910226  0.31009761  0.75833263     0.00800
H479        H  0.25033587  0.32184385  0.70275832     0.15400
H480        H  0.21647916  0.24581856  0.76959604     0.15200
C481        C  0.29088495  0.06189278  0.74878409     0.87000
C482        C  0.31053489  0.05713568  0.77779489    -0.53300
C483        C  0.31125430  0.02688764  0.77716832     0.09900
C484        C  0.29124476  0.00347592  0.74731811     0.20800
C485        C  0.30778907  0.05683908  0.71761580    -0.54000
C486        C  0.30853403  0.02663561  0.71653830     0.10000
C487        C  0.25439603  0.03004342  0.74964974    -0.53500
C488        C  0.25401057  0.99915530  0.74914430     0.10600
H489        H  0.32365813  0.07675048  0.79676614     0.15100
H490        H  0.29201513  0.97910255  0.74684544     0.00800
H491        H  0.31851448  0.07583267  0.69791705     0.15400
H492        H  0.23091892  0.03214266  0.75079079     0.15200
C493        C  0.73030629  0.02840985  0.74411756     0.87000
C494        C  0.70520958  0.02387107  0.71569590    -0.53300
C495        C  0.67446629  0.99313857  0.71598416     0.09900
C496        C  0.67192861  0.96914639  0.74481631     0.20800
C497        C  0.70879446  0.02177845  0.77577029    -0.54000
C498        C  0.67766205  0.99142465  0.77619739     0.10000
C499        C  0.73565984  0.99722378  0.74126659    -0.53500
C500        C  0.70540228  0.96594716  0.74167809     0.10600
H501        H  0.71116271  0.04380723  0.69725659     0.15100
H502        H  0.64696440  0.94430672  0.74497820     0.00800
H503        H  0.71749200  0.04061198  0.79569560     0.15400
H504        H  0.76125380  0.99955460  0.73937388     0.15200
C505        C  0.70596406  0.74564382  0.75265694     0.87000
C506        C  0.68322633  0.72173509  0.72501397    -0.53300
C507        C  0.68128783  0.69034818  0.72418371     0.09900
C508        C  0.70391584  0.68616365  0.75129776     0.20800
C509        C  0.69195101  0.72463295  0.78470549    -0.54000
C510        C  0.69057346  0.69331384  0.78431647     0.10000
C511        C  0.74191950  0.74854167  0.74761876    -0.53500
C512        C  0.74125470  0.71748003  0.74690262     0.10600
H513        H  0.66902075  0.72916767  0.70790072     0.15100
H514        H  0.70283515  0.66086947  0.75057964     0.00800
H515        H  0.68285781  0.73371405  0.80532421     0.15400
H516        H  0.76592255  0.77299870  0.74610820     0.15200
C517        C  0.68446994  0.82037341  0.75175602     0.16400
C518        C  0.66820681  0.84064058  0.75280054    -0.32600
C519        C  0.68880166  0.87595067  0.74555281     0.20800
C520        C  0.72375095  0.89001022  0.73712191     0.03000
C521        C  0.73985967  0.86977442  0.73585880    -0.22400
C522        C  0.71952666  0.83475194  0.74367071     0.12200
S523        S  0.66439365  0.77727235  0.75992399    -0.06000
C524        C  0.70378894  0.77855485  0.75271970    -0.09500
C525        C  0.73082417  0.81111995  0.74426312    -0.26100
S526        S  0.74478395  0.93317012  0.73028041    -0.03300
C527        C  0.70644906  0.93311498  0.73962852    -0.16700
C528        C  0.67856701  0.90052814  0.74682543    -0.14700
H529        H  0.64088120  0.82947488  0.75941679     0.20600
H530        H  0.76728245  0.88101257  0.72957849     0.16700
H531        H  0.75718145  0.81742097  0.73796119     0.19200
H532        H  0.65261720  0.89514927  0.75380486     0.12500
C533        C  0.30139800  0.15391593  0.74394661     0.16400
C534        C  0.31042639  0.18782168  0.73569990    -0.32600
C535        C  0.29435092  0.20311695  0.75353396     0.20800
C536        C  0.27026483  0.18539954  0.77845945     0.03000
C537        C  0.26190849  0.15173185  0.78727879    -0.22400
C538        C  0.27802361  0.13640906  0.76938862     0.12200
S539        S  0.31668926  0.13042821  0.72405274    -0.06000
C540        C  0.29136941  0.09619710  0.75019705    -0.09500
C541        C  0.27263433  0.10355098  0.77348110    -0.26100
S542        S  0.25143754  0.20747328  0.79509254    -0.03300
C543        C  0.27665437  0.24108263  0.76847850    -0.16700
C544        C  0.29853891  0.23526896  0.74807912    -0.14700
H545        H  0.32863963  0.20143279  0.71574030     0.20600
H546        H  0.24305234  0.13780318  0.80668198     0.16700
H547        H  0.25551269  0.08553579  0.79206857     0.19200
H548        H  0.31531520  0.25294212  0.72908357     0.12500
C549        C  0.14556691  0.28371728  0.74335184     0.16400
C550        C  0.11057393  0.26963253  0.73338167    -0.32600
C551        C  0.09205729  0.28568321  0.74468979     0.20800
C552        C  0.10765194  0.31466503  0.76481889     0.03000
C553        C  0.14260399  0.32850776  0.77514252    -0.22400
C554        C  0.16108675  0.31223608  0.76403610     0.12200
S555        S  0.17263682  0.26850691  0.73161991    -0.06000
C556        C  0.20538999  0.30032994  0.75553859    -0.09500
C557        C  0.19526829  0.32183077  0.77123927    -0.26100
S558        S  0.08054924  0.33043155  0.77540272    -0.03300
C559        C  0.04768578  0.29718147  0.75301726    -0.16700
C560        C  0.05774967  0.27548391  0.73798371    -0.14700
H561        H  0.09831118  0.24714788  0.71743852     0.20600
H562        H  0.15485623  0.35096410  0.79111559     0.16700
H563        H  0.21185079  0.34382416  0.78659501     0.19200
H564        H  0.04075706  0.25320688  0.72300819     0.12500
C565        C  0.80301101  0.12492731  0.74873382     0.16400
C566        C  0.82188996  0.16099406  0.75168805    -0.32600
C567        C  0.85857252  0.17717646  0.75214237     0.20800
C568        C  0.87556211  0.15821154  0.74990379     0.03000
C569        C  0.85669503  0.12217751  0.74701548    -0.22400
C570        C  0.82005345  0.10602058  0.74641874     0.12200
S571        S  0.75852105  0.10050556  0.74788128    -0.06000
C572        C  0.76261184  0.06409785  0.74451527    -0.09500
C573        C  0.79718086  0.07122852  0.74388876    -0.26100
S574        S  0.92004222  0.18252502  0.75037575    -0.03300
C575        C  0.91616145  0.21909760  0.75331891    -0.16700
C576        C  0.88163952  0.21202854  0.75419746    -0.14700
H577        H  0.80858147  0.17576779  0.75344150     0.20600
H578        H  0.87000987  0.10739769  0.74518506     0.16700
H579        H  0.80564207  0.05235029  0.74220466     0.19200
H580        H  0.87391294  0.23148668  0.75573474     0.12500
C581        C  0.16042054  0.92020650  0.75205109     0.16400
C582        C  0.12408307  0.89814624  0.75230565    -0.32600
C583        C  0.11151976  0.86254296  0.75243771     0.20800
C584        C  0.13420017  0.84949287  0.75273633     0.03000
C585        C  0.17068341  0.87162954  0.75261448    -0.22400
C586        C  0.18327526  0.90735039  0.75208825     0.12200
S587        S  0.18038680  0.96396249  0.75106737    -0.06000
C588        C  0.22044420  0.96560239  0.75042594    -0.09500
C589        C  0.21778726  0.93324111  0.75118457    -0.26100
S590        S  0.11357394  0.80551451  0.75260984    -0.03300
C591        C  0.07372888  0.80445266  0.75157783    -0.16700
C592        C  0.07698692  0.83705749  0.75180492    -0.14700
H593        H  0.10631362  0.90834685  0.75203295     0.20600
H594        H  0.18845108  0.86144067  0.75258174     0.16700
H595        H  0.23969243  0.92864107  0.75097328     0.19200
H596        H  0.05557141  0.84236736  0.75133927     0.12500
C597        C  0.82076522  0.70170213  0.74738635     0.16400
C598        C  0.84475260  0.68977820  0.75227091    -0.32600
C599        C  0.88041680  0.71271078  0.74530574     0.20800
C600        C  0.89127015  0.74569756  0.73371976     0.03000
C601        C  0.86741503  0.75730990  0.72844865    -0.22400
C602        C  0.83214733  0.73472709  0.73572436     0.12200
S603        S  0.77668637  0.67923250  0.75588577    -0.06000
C604        C  0.77388689  0.71504696  0.74405299    -0.09500
C605        C  0.80568235  0.74236101  0.73351294    -0.26100
S606        S  0.93522365  0.77037510  0.72805284    -0.03300
C607        C  0.93998494  0.73626196  0.74158958    -0.16700
C608        C  0.90832687  0.70698412  0.74963228    -0.14700
H609        H  0.83614089  0.66411449  0.76171341     0.20600
H610        H  0.87614518  0.78325735  0.71974237     0.16700
H611        H  0.80970329  0.76701227  0.72496534     0.19200
H612        H  0.90588365  0.68321736  0.75910057     0.12500
C613        C  0.59927035  0.96483094  0.65215044     0.16400
C614        C  0.57281263  0.94803887  0.62807070    -0.32600
C615        C  0.56328110  0.96845017  0.60879332     0.20800
C616        C  0.57903719  0.00374341  0.61380803     0.03000
C617        C  0.60485100  0.02027089  0.63802716    -0.22400
C618        C  0.61475905  0.00012860  0.65667951     0.12200
S619        S  0.61668607  0.94575637  0.67690737    -0.06000
C620        C  0.64565789  0.98607588  0.69246530    -0.09500
C621        C  0.64094516  0.01229916  0.67975518    -0.26100
S622        S  0.56525498  0.02450885  0.58770144    -0.03300
C623        C  0.53773866  0.98539022  0.56935996    -0.16700
C624        C  0.53923166  0.95762960  0.58320885    -0.14700
H625        H  0.56083711  0.92054664  0.62400815     0.20600
H626        H  0.61738909  0.04789341  0.64158145     0.16700
H627        H  0.65635383  0.03920991  0.68660249     0.19200
H628        H  0.52393669  0.93120956  0.57481820     0.12500
C629        C  0.60217332  0.96347392  0.84027045     0.16400
C630        C  0.57260091  0.94667880  0.86110870    -0.32600
C631        C  0.56745720  0.96682290  0.88509782     0.20800
C632        C  0.59052545  0.00194633  0.88767375     0.03000
C633        C  0.61952121  0.01851774  0.86688635    -0.22400
C634        C  0.62481054  0.99852435  0.84347877     0.12200
S635        S  0.61443298  0.94459494  0.80976374    -0.06000
C636        C  0.65070694  0.98445268  0.80210446    -0.09500
C637        C  0.65209450  0.01057638  0.82183983    -0.26100
S638        S  0.58057509  0.02243360  0.91760462    -0.03300
C639        C  0.54463216  0.98346260  0.92740511    -0.16700
C640        C  0.54080106  0.95590168  0.90812932    -0.14700
H641        H  0.55466255  0.91927145  0.85891542     0.20600
H642        H  0.63748325  0.04595118  0.86907038     0.16700
H643        H  0.67178614  0.03753022  0.82044091     0.19200
H644        H  0.51959298  0.92962874  0.91053194     0.12500
C645        C  0.37749247  0.97405286  0.87829032     0.16400
C646        C  0.35089020  0.96457137  0.85420137    -0.32600
C647        C  0.35037464  0.99120272  0.83574107     0.20800
C648        C  0.37549165  0.02538766  0.84094503     0.03000
C649        C  0.40217657  0.03465613  0.86426293    -0.22400
C650        C  0.40236269  0.00838817  0.88286253     0.12200
S651        S  0.38229875  0.94663671  0.90505613    -0.06000
C652        C  0.41779644  0.98220258  0.92247650    -0.09500
C653        C  0.42538349  0.01313647  0.90776783    -0.26100
S654        S  0.36998334  0.05432220  0.81820310    -0.03300
C655        C  0.33303741  0.02040628  0.80111582    -0.16700
C656        C  0.32595936  0.98809344  0.81233580    -0.14700
H657        H  0.33108950  0.93787760  0.85061451     0.20600
H658        H  0.42149140  0.06143201  0.86842108     0.16700
H659        H  0.44653504  0.03815057  0.91524970     0.19200
H660        H  0.30364258  0.96391815  0.80472335     0.12500
C661        C  0.36282236  0.02459274  0.64234009     0.16400
C662        C  0.38529604  0.03361544  0.61514265    -0.32600
C663        C  0.38956585  0.00777906  0.60029598     0.20800
C664        C  0.37215552  0.97410011  0.61173168     0.03000
C665        C  0.34935655  0.96493590  0.63928664    -0.22400
C666        C  0.34516551  0.99115950  0.65443189     0.12200
S667        S  0.35502543  0.05296657  0.66314086    -0.06000
C668        C  0.32711091  0.01989046  0.68904830    -0.09500
C669        C  0.32456120  0.98824832  0.68157892    -0.26100
S670        S  0.38205014  0.94708132  0.58972352    -0.03300
C671        C  0.40996346  0.98192958  0.56539623    -0.16700
C672        C  0.41102949  0.01237113  0.57403112    -0.14700
H673        H  0.39909948  0.05986972  0.60600733     0.20600
H674        H  0.33573962  0.93874959  0.64856076     0.16700
H675        H  0.30840318  0.96448168  0.69489286     0.19200
H676        H  0.42716429  0.03695551  0.56193542     0.12500
C677        C  0.01843690  0.65776903  0.65376677     0.16400
C678        C  0.03095834  0.64243002  0.63137731    -0.32600
C679        C  0.00646779  0.61526955  0.61168477     0.20800
C680        C  0.97096945  0.60381024  0.61413117     0.03000
C681        C  0.95835171  0.61907137  0.63680421    -0.22400
C682        C  0.98296362  0.64632389  0.65664555     0.12200
S683        S  0.04436230  0.69161627  0.67886270    -0.06000
C684        C  0.00721045  0.69077948  0.69371354    -0.09500
C685        C  0.97625710  0.66498932  0.67992103    -0.26100
S686        S  0.94572562  0.57063065  0.58761520    -0.03300
C687        C  0.98344060  0.57216875  0.57327364    -0.16700
C688        C  0.01377711  0.59728215  0.58840432    -0.14700
H689        H  0.05867681  0.65145608  0.62925079     0.20600
H690        H  0.93066211  0.61021527  0.63876712     0.16700
H691        H  0.95045917  0.66073889  0.68589891     0.19200
H692        H  0.03985517  0.60214291  0.58269903     0.12500
C693        C  0.01051016  0.62598784  0.89053325     0.16400
C694        C  0.02853753  0.65585477  0.87131336    -0.32600
C695        C  0.00963343  0.66228810  0.84704172     0.20800
C696        C  0.97433350  0.63992481  0.84174966     0.03000
C697        C  0.95613105  0.60988548  0.86114502    -0.22400
C698        C  0.97507036  0.60354533  0.88578130     0.12200
S699        S  0.02920850  0.61395845  0.92101569    -0.06000
C700        C  0.98888835  0.57824736  0.92801869    -0.09500
C701        C  0.96238286  0.57601558  0.90744382    -0.26100
S702        S  0.95673310  0.65266233  0.81038197    -0.03300
C703        C  0.99734083  0.68873655  0.80479002    -0.16700
C704        C  0.02287702  0.69008677  0.82613107    -0.14700
H705        H  0.05618223  0.67339570  0.87514893     0.20600
H706        H  0.92852062  0.59230479  0.85723578     0.16700
H707        H  0.93547909  0.55532198  0.90811870     0.19200
H708        H  0.05009090  0.71002300  0.82614682     0.12500
C709        C  0.95959575  0.39641462  0.89186941     0.16400
C710        C  0.94405274  0.36629528  0.87271365    -0.32600
C711        C  0.96521623  0.36106674  0.85022030     0.20800
C712        C  0.00039064  0.38488555  0.84655820     0.03000
C713        C  0.01618495  0.41512926  0.86605235    -0.22400
C714        C  0.99491497  0.42023221  0.88894722     0.12200
S715        S  0.93773214  0.40710413  0.92008899    -0.06000
C716        C  0.97649038  0.44405888  0.92882453    -0.09500
C717        C  0.00491312  0.44770055  0.91039990    -0.26100
S718        S  0.02081526  0.37365070  0.81676535    -0.03300
C719        C  0.98154703  0.33624434  0.80966510    -0.16700
C720        C  0.95437826  0.33329599  0.82945157    -0.14700
H721        H  0.91650290  0.34769925  0.87518520     0.20600
H722        H  0.04368590  0.43382055  0.86342840     0.16700
H723        H  0.03125680  0.46930141  0.91239669     0.19200
H724        H  0.92766320  0.31231658  0.82827818     0.12500
C725        C  0.95633698  0.39710856  0.61676000     0.16400
C726        C  0.94024424  0.37025348  0.64000985    -0.32600
C727        C  0.96177887  0.36184052  0.65898709     0.20800
C728        C  0.99781975  0.37958976  0.65531455     0.03000
C729        C  0.01392873  0.40636238  0.63188403    -0.22400
C730        C  0.99233719  0.41463554  0.61268867     0.12200
S731        S  0.93472909  0.41108007  0.59130913    -0.06000
C732        C  0.97453006  0.44083202  0.57465107    -0.09500
C733        C  0.00293733  0.43974809  0.58855545    -0.26100
S734        S  0.01924198  0.36578106  0.68137302    -0.03300
C735        C  0.97917348  0.33536618  0.69694744    -0.16700
C736        C  0.95094388  0.33635600  0.68260560    -0.14700
H737        H  0.91211215  0.35644988  0.64313143     0.20600
H738        H  0.04205449  0.42015025  0.62876356     0.16700
H739        H  0.02992070  0.45640877  0.58135710     0.19200
H740        H  0.92385632  0.31952707  0.68939011     0.12500
C741        C  0.59884408  0.57104059  0.62780891     0.16400
C742        C  0.62603695  0.58511049  0.65155027    -0.32600
C743        C  0.63169591  0.61495932  0.66866259     0.20800
C744        C  0.61073153  0.62941551  0.66259031     0.03000
C745        C  0.58337891  0.61508454  0.63959766    -0.22400
C746        C  0.57815869  0.58589297  0.62226304     0.12200
S747        S  0.58905967  0.53676522  0.60216885    -0.06000
C748        C  0.55720046  0.54316201  0.58385000    -0.09500
C749        C  0.55420395  0.56995830  0.59747877    -0.26100
S750        S  0.62216856  0.66618298  0.68380164    -0.03300
C751        C  0.65630428  0.66305579  0.70127448    -0.16700
C752        C  0.65789579  0.63405973  0.69132731    -0.14700
H753        H  0.64261047  0.57396918  0.65573145     0.20600
H754        H  0.56750125  0.62686536  0.63466798     0.16700
H755        H  0.53617407  0.57817441  0.58893616     0.19200
H756        H  0.67764788  0.62791863  0.69926684     0.12500
C757        C  0.61836285  0.61427916  0.91006783     0.16400
C758        C  0.63648977  0.64635750  0.89437012    -0.32600
C759        C  0.65046466  0.64756409  0.86281084     0.20800
C760        C  0.64713981  0.61828711  0.84762955     0.03000
C761        C  0.62970656  0.58615704  0.86376893    -0.22400
C762        C  0.61522344  0.58482304  0.89529496     0.12200
S763        S  0.59621931  0.60724852  0.94652677    -0.06000
C764        C  0.58250947  0.56409798  0.94215596    -0.09500
C765        C  0.59501122  0.55579697  0.91400994    -0.26100
S766        S  0.66405405  0.62527102  0.80821703    -0.03900
C767        C  0.67539801  0.66806267  0.81215226    -0.16700
C768        C  0.66683237  0.67605265  0.84291164    -0.14700
H769        H  0.63843236  0.66922405  0.90572576     0.20600
H770        H  0.62651551  0.56306451  0.85180567     0.16700
H771        H  0.58794492  0.52983199  0.90665766     0.19200
H772        H  0.67148903  0.70120978  0.85044747     0.12500
C773        C  0.41684416  0.40095036  0.88524506     0.16400
C774        C  0.39980628  0.37383441  0.86232959    -0.32600
C775        C  0.37329882  0.37346388  0.84247448     0.20800
C776        C  0.36450488  0.39914791  0.84514405     0.03000
C777        C  0.38193725  0.42651055  0.86753149    -0.22400
C778        C  0.40801643  0.42662345  0.88762935     0.12200
S779        S  0.44824380  0.40518555  0.91303199    -0.06000
C780        C  0.44919131  0.44176733  0.92811354    -0.09500
C781        C  0.42653043  0.45012589  0.91201881    -0.26100
S782        S  0.33027635  0.39311841  0.82068252    -0.03300
C783        C  0.32743889  0.35539199  0.80657123    -0.16700
C784        C  0.35233828  0.34841609  0.82000450    -0.14700
H785        H  0.40629630  0.35350479  0.86065171     0.20600
H786        H  0.37479662  0.44634532  0.86984698     0.16700
H787        H  0.42331446  0.47195339  0.91821130     0.19200
H788        H  0.35408015  0.32558681  0.81471964     0.12500
C789        C  0.37489144  0.38999635  0.59849636     0.16400
C790        C  0.34286288  0.37532360  0.61530506    -0.32600
C791        C  0.34017707  0.35843044  0.64546028     0.20800
C792        C  0.36795005  0.35573656  0.65819032     0.03000
C793        C  0.39990228  0.36973897  0.64091368    -0.22400
C794        C  0.40276074  0.38709438  0.61080812     0.12200
S795        S  0.38413687  0.41466043  0.56358797    -0.06000
C796        C  0.42607426  0.42119447  0.56516717    -0.09500
C797        C  0.43224399  0.40461000  0.59138941    -0.26100
S798        S  0.35979661  0.33632881  0.69641500    -0.03300
C799        C  0.31855027  0.33204810  0.69539568    -0.16700
C800        C  0.31186685  0.34473691  0.66634068    -0.14700
H801        H  0.32133522  0.37808624  0.60589099     0.20600
H802        H  0.42187748  0.36819796  0.65103097     0.16700
H803        H  0.45736130  0.40690151  0.59700360     0.19200
H804        H  0.28808769  0.34524610  0.66092698     0.12500
loop_ 
_geom_bond_atom_site_label_1 
_geom_bond_atom_site_label_2 
_geom_bond_distance 
_geom_bond_site_symmetry_2 
_ccdc_geom_bond_type 
O1           Ni9   1.912       .  S
O1           C11   1.281       .  A
O2         Ni411   1.912       .  S
O2           C12   1.281       .  A
O3           Ni9   1.906       .  S
O3           C13   1.279       .  A
O4         Ni411   1.902       .  S
O4           C14   1.278       .  A
O5          Ni10   1.937       .  S
O5           C14   1.284       .  A
O6         Ni412   1.938       .  S
O6           C13   1.285       .  A
O7          Ni10   1.924       .  S
O7           C12   1.281       .  A
O8         Ni412   1.924       .  S
O8           C11   1.282       .  A
Ni9         O404   1.914       .  S
Ni9         O406   1.907       .  S
Ni9        Ni412   2.388       .  S
Ni10        O408   1.934   1_554  S
Ni10        O410   1.923   1_554  S
Ni10       Ni411   2.388       .  S
C11         C378   1.473       .  S
C12         C346   1.473       .  S
C13         C362   1.477       .  S
C14         C394   1.473       .  S
O15         Ni23   1.925   1_554  S
O15          C25   1.281       .  A
O16        Ni425   1.918       .  S
O16          C26   1.281       .  A
O17         Ni23   1.926   1_554  S
O17          C27   1.283       .  A
O18        Ni425   1.934       .  S
O18          C28   1.284       .  A
O19        Ni426   1.920       .  S
O19          C28   1.282   1_455  A
O20         Ni24   1.917       .  S
O20          C27   1.281   1_455  A
O21        Ni426   1.933       .  S
O21          C26   1.283   1_455  A
O22         Ni24   1.925       .  S
O22          C25   1.284   1_455  A
Ni23        O418   1.920       .  S
Ni23        O420   1.932       .  S
Ni23        Ni24   2.387   1_656  S
Ni24        O421   1.913   1_554  S
Ni24        O423   1.932   1_554  S
C25         C285   1.481       .  S
C26         C314   1.479       .  S
C27         C330   1.476       .  S
C28         C298   1.483       .  S
O29         Ni37   1.905   1_554  S
O29          C39   1.279   1_545  A
O30        Ni439   1.905       .  S
O30          C40   1.280   1_545  A
O31         Ni37   1.909   1_554  S
O31          C41   1.280   1_545  A
O32        Ni439   1.909       .  S
O32          C42   1.280   1_545  A
O33        Ni440   1.930       .  S
O33          C42   1.283       .  A
O34         Ni38   1.939   1_554  S
O34          C41   1.285       .  A
O35        Ni440   1.937       .  S
O35          C40   1.284       .  A
O36         Ni38   1.936   1_554  S
O36          C39   1.284       .  A
Ni37        O432   1.904       .  S
Ni37        O434   1.904       .  S
Ni37        Ni38   2.387   1_545  S
Ni38        O435   1.937       .  S
Ni38        O437   1.935       .  S
C39         C221   1.476       .  S
C40         C250   1.478       .  S
C41         C269   1.481       .  S
C42         C237   1.473       .  S
C43          C44   1.532       .  S
C43          C49   1.535       .  S
C43          C47   1.528       .  S
C43         C189   1.530       .  S
C44          H51   1.085       .  S
C44          C45   1.373       .  D
C45          C46   1.552   1_455  S
C45         C301   1.496   1_455  S
C46          C50   1.551       .  S
C46          C48   1.548   1_655  S
C46          H52   1.109       .  S
C47          H53   1.086       .  S
C47          C48   1.368       .  D
C48         C282   1.489       .  S
C49          H54   1.081       .  S
C49          C50   1.371   1_455  D
C50         C205   1.497       .  S
C55          C56   1.534       .  S
C55          C61   1.532       .  S
C55          C59   1.533       .  S
C55         C173   1.517       .  S
C56          H63   1.084       .  S
C56          C57   1.372       .  D
C57          C58   1.545   1_655  S
C57         C317   1.493       .  S
C58          C62   1.540       .  S
C58          C60   1.543   1_455  S
C58          H64   1.109       .  S
C59          H65   1.086       .  S
C59          C60   1.368       .  D
C60         C333   1.481       .  S
C61          H66   1.084       .  S
C61          C62   1.364   1_655  D
C62         C157   1.478       .  S
C67          C68   1.531       .  S
C67          C73   1.529       .  S
C67          C71   1.528       .  S
C67         C154   1.515       .  S
C68          H75   1.082       .  S
C68          C69   1.367       .  D
C69          C70   1.549       .  S
C69         C381   1.486       .  S
C70          C74   1.549       .  S
C70          C72   1.543       .  S
C70          H76   1.106       .  S
C71          H77   1.085       .  S
C71          C72   1.369       .  D
C72         C397   1.485       .  S
C73          H78   1.085       .  S
C73          C74   1.368       .  D
C74         C141   1.492       .  S
C79          C80   1.525       .  S
C79          C85   1.534       .  S
C79          C83   1.529       .  S
C79         C138   1.525       .  S
C80          H87   1.085       .  S
C80          C81   1.369       .  D
C81          C82   1.551       .  S
C81         C253   1.493       .  S
C82          C86   1.554   1_545  S
C82          C84   1.553       .  S
C82          H88   1.107   1_545  S
C83          H89   1.085       .  S
C83          C84   1.370       .  D
C84         C266   1.492       .  S
C85          H90   1.080       .  S
C85          C86   1.370   1_545  D
C86         C186   1.498       .  S
C91          C92   1.522       .  S
C91          C97   1.526       .  S
C91          C95   1.524       .  S
C91         C170   1.516       .  S
C92          H99   1.085       .  S
C92          C93   1.367   1_545  D
C93          C94   1.551       .  S
C93         C218   1.490       .  S
C94          C98   1.560       .  S
C94          C96   1.551       .  S
C94         H100   1.108       .  S
C95         H101   1.081       .  S
C95          C96   1.370   1_545  D
C96         C234   1.496       .  S
C97         H102   1.080       .  S
C97          C98   1.371   1_545  D
C98         C125   1.495       .  S
C103        C104   1.524       .  S
C103        C109   1.537       .  S
C103        C107   1.525       .  S
C103        C122   1.521       .  S
C104        H111   1.086       .  S
C104        C105   1.363       .  D
C105        C106   1.545       .  S
C105        C349   1.481       .  S
C106        C110   1.553       .  S
C106        C108   1.550       .  S
C106        H112   1.109       .  S
C107        H113   1.085       .  S
C107        C108   1.369       .  D
C108        C365   1.491       .  S
C109        H114   1.081       .  S
C109        C110   1.377       .  D
C110        C202   1.497       .  S
C115        S121   1.704       .  A
C115        C120   1.385       .  A
C115        C116   1.408       .  A
C116        C117   1.406       .  A
C116        H127   1.083       .  S
C117        C126   1.382       .  A
C117        C118   1.385       .  A
C118        S124   1.695       .  A
C118        C119   1.401       .  A
C119        C120   1.399       .  A
C119        H128   1.083       .  S
C120        C123   1.374       .  A
S121        C122   1.733       .  A
C122        C123   1.389       .  A
C123        H129   1.080       .  S
S124        C125   1.730       .  A
C125        C126   1.392       .  A
C126        H130   1.081       .  S
C131        S137   1.710       .  A
C131        C136   1.384       .  A
C131        C132   1.408       .  A
C132        C133   1.407       .  A
C132        H143   1.083       .  S
C133        C142   1.378       .  A
C133        C134   1.385       .  A
C134        S140   1.698       .  A
C134        C135   1.399       .  A
C135        C136   1.400       .  A
C135        H144   1.083       .  S
C136        C139   1.370       .  A
S137        C138   1.732       .  A
C138        C139   1.392       .  A
C139        H145   1.079       .  S
S140        C141   1.728       .  A
C141        C142   1.393       .  A
C142        H146   1.081       .  S
C147        S153   1.701       .  A
C147        C152   1.385       .  A
C147        C148   1.397       .  A
C148        C149   1.399       .  A
C148        H159   1.083       .  S
C149        C158   1.363       .  A
C149        C150   1.386       .  A
C150        S156   1.712       .  A
C150        C151   1.403       .  A
C151        C152   1.405       .  A
C151        H160   1.083       .  S
C152        C155   1.370       .  A
S153        C154   1.725       .  A
C154        C155   1.393       .  A
C155        H161   1.080       .  S
S156        C157   1.723       .  A
C157        C158   1.387       .  A
C158        H162   1.083       .  S
C163        S169   1.701       .  A
C163        C168   1.385       .  A
C163        C164   1.401       .  A
C164        C165   1.401       .  A
C164        H175   1.080       .  S
C165        C174   1.371       .  A
C165        C166   1.385       .  A
C166        S172   1.703       .  A
C166        C167   1.402       .  A
C167        C168   1.402       .  A
C167        H176   1.079       .  S
C168        C171   1.372       .  A
S169        C170   1.728       .  A
C170        C171   1.391       .  A
C171        H177   1.077       .  S
S172        C173   1.730       .  A
C173        C174   1.388       .  A
C174        H178   1.082       .  S
C179        S185   1.700       .  A
C179        C184   1.385       .  A
C179        C180   1.403       .  A
C180        C181   1.402       .  A
C180        H191   1.083       .  S
C181        C190   1.375       .  A
C181        C182   1.384       .  A
C182        S188   1.711       .  A
C182        C183   1.410       .  A
C183        C184   1.409       .  A
C183        H192   1.083       .  S
C184        C187   1.383       .  A
S185        C186   1.731       .  A
C186        C187   1.393       .  A
C187        H193   1.082       .  S
S188        C189   1.732       .  A
C189        C190   1.394       .  A
C190        H194   1.080       .  S
C195        S201   1.719       .  A
C195        C200   1.384       .  A
C195        C196   1.413       .  A
C196        C197   1.412       .  A
C196        H207   1.082       .  S
C197        C206   1.385       .  A
C197        C198   1.386       .  A
C198        S204   1.698       .  A
C198        C199   1.398       .  A
C199        C200   1.399       .  A
C199        H208   1.083       .  S
C200        C203   1.369       .  A
S201        C202   1.731       .  A
C202        C203   1.390       .  A
C203        H209   1.081       .  S
S204        C205   1.727       .  A
C205        C206   1.395       .  A
C206        H210   1.082       .  S
C211        S217   1.721       .  A
C211        C216   1.384   1_565  A
C211        C212   1.411       .  A
C212        C213   1.412       .  A
C212        H223   1.083       .  S
C213        C222   1.380       .  A
C213        C214   1.387   1_565  A
C214        S220   1.699       .  A
C214        C215   1.394       .  A
C215        C216   1.397       .  A
C215        H224   1.083       .  S
C216        C219   1.361       .  A
S217        C218   1.729       .  A
C218        C219   1.388   1_565  A
C219        H225   1.082       .  S
S220        C221   1.721   1_545  A
C221        C222   1.392       .  A
C222        H226   1.083       .  S
C227        S233   1.720       .  A
C227        C232   1.383   1_565  A
C227        C228   1.410       .  A
C228        C229   1.412       .  A
C228        H239   1.083       .  S
C229        C238   1.378       .  A
C229        C230   1.387   1_565  A
C230        S236   1.699       .  A
C230        C231   1.393       .  A
C231        C232   1.396       .  A
C231        H240   1.083       .  S
C232        C235   1.360       .  A
S233        C234   1.732       .  A
C234        C235   1.390   1_565  A
C235        H241   1.079       .  S
S236        C237   1.719   1_545  A
C237        C238   1.392       .  A
C238        H242   1.083       .  S
C243        S249   1.720       .  A
C243        C248   1.385   1_565  A
C243        C244   1.412       .  A
C244        C245   1.412       .  A
C244        H255   1.082       .  S
C245        C254   1.383       .  A
C245        C246   1.386   1_565  A
C246        S252   1.694       .  A
C246        C247   1.395       .  A
C247        C248   1.395       .  A
C247        H256   1.083       .  S
C248        C251   1.364       .  A
S249        C250   1.729       .  A
C250        C251   1.384   1_565  A
C251        H257   1.083       .  S
S252        C253   1.726       .  A
C253        C254   1.395   1_545  A
C254        H258   1.082       .  S
C259        S265   1.700       .  A
C259        C264   1.386   1_545  A
C259        C260   1.399       .  A
C260        C261   1.399       .  A
C260        H271   1.083       .  S
C261        C270   1.368       .  A
C261        C262   1.385   1_545  A
C262        S268   1.718       .  A
C262        C263   1.410       .  A
C263        C264   1.410       .  A
C263        H272   1.082       .  S
C264        C267   1.381       .  A
S265        C266   1.727       .  A
C266        C267   1.393   1_545  A
C267        H273   1.082       .  S
S268        C269   1.728       .  A
C269        C270   1.387   1_565  A
C270        H274   1.083       .  S
C275        S281   1.699       .  A
C275        C280   1.386   1_455  A
C275        C276   1.399       .  A
C276        C277   1.399       .  A
C276        H287   1.082       .  S
C277        C286   1.371       .  A
C277        C278   1.386   1_455  A
C278        S284   1.715       .  A
C278        C279   1.410       .  A
C279        C280   1.409       .  A
C279        H288   1.082       .  S
C280        C283   1.381       .  A
S281        C282   1.726       .  A
C282        C283   1.392   1_455  A
C283        H289   1.082       .  S
S284        C285   1.729       .  A
C285        C286   1.386   1_655  A
C286        H290   1.083       .  S
C291        S297   1.705       .  A
C291        C296   1.386   1_455  A
C291        C292   1.400       .  A
C292        C293   1.401       .  A
C292        H303   1.083       .  S
C293        C302   1.369       .  A
C293        C294   1.384   1_455  A
C294        S300   1.720       .  A
C294        C295   1.411       .  A
C295        C296   1.412       .  A
C295        H304   1.082       .  S
C296        C299   1.381       .  A
S297        C298   1.723   1_455  A
C298        C299   1.394       .  A
C299        H305   1.083       .  S
S300        C301   1.730       .  A
C301        C302   1.391   1_655  A
C302        H306   1.082       .  S
C307        S313   1.704       .  A
C307        C312   1.387       .  A
C307        C308   1.399       .  A
C308        C309   1.400       .  A
C308        H319   1.082       .  S
C309        C318   1.369       .  A
C309        C310   1.384   1_655  A
C310        S316   1.716       .  A
C310        C311   1.410       .  A
C311        C312   1.411   1_455  A
C311        H320   1.082       .  S
C312        C315   1.380   1_655  A
S313        C314   1.721       .  A
C314        C315   1.393   1_655  A
C315        H321   1.083       .  S
S316        C317   1.730   1_455  A
C317        C318   1.389       .  A
C318        H322   1.081       .  S
C323        S329   1.709       .  A
C323        C328   1.386       .  A
C323        C324   1.402       .  A
C324        C325   1.403       .  A
C324        H335   1.083       .  S
C325        C334   1.369       .  A
C325        C326   1.386       .  A
C326        S332   1.710   1_655  A
C326        C327   1.403   1_655  A
C327        C328   1.404   1_455  A
C327        H336   1.083       .  S
C328        C331   1.371       .  A
S329        C330   1.724       .  A
C330        C331   1.389       .  A
C331        H337   1.083   1_655  S
S332        C333   1.724   1_455  A
C333        C334   1.388       .  A
C334        H338   1.083       .  S
C339        S345   1.714       .  A
C339        C344   1.386       .  A
C339        C340   1.409       .  A
C340        C341   1.409       .  A
C340        H351   1.082       .  S
C341        C350   1.380       .  A
C341        C342   1.387       .  A
C342        S348   1.693       .  A
C342        C343   1.394       .  A
C343        C344   1.395       .  A
C343        H352   1.082       .  S
C344        C347   1.365       .  A
S345        C346   1.728       .  A
C346        C347   1.383       .  A
C347        H353   1.083       .  S
S348        C349   1.723       .  A
C349        C350   1.390       .  A
C350        H354   1.082       .  S
C355        S361   1.699       .  A
C355        C360   1.387       .  A
C355        C356   1.395       .  A
C356        C357   1.397       .  A
C356        H367   1.083       .  S
C357        C366   1.363       .  A
C357        C358   1.384       .  A
C358        S364   1.720       .  A
C358        C359   1.411       .  A
C359        C360   1.412       .  A
C359        H368   1.083       .  S
C360        C363   1.381       .  A
S361        C362   1.721       .  A
C362        C363   1.393       .  A
C363        H369   1.083       .  S
S364        C365   1.729       .  A
C365        C366   1.388       .  A
C366        H370   1.082       .  S
C371        S377   1.710       .  A
C371        C376   1.386       .  A
C371        C372   1.405       .  A
C372        C373   1.405       .  A
C372        H383   1.082       .  S
C373        C382   1.376       .  A
C373        C374   1.386       .  A
C374        S380   1.698       .  A
C374        C375   1.399       .  A
C375        C376   1.399       .  A
C375        H384   1.082       .  S
C376        C379   1.368       .  A
S377        C378   1.725       .  A
C378        C379   1.386       .  A
C379        H385   1.083       .  S
S380        C381   1.727       .  A
C381        C382   1.389       .  A
C382        H386   1.082       .  S
C387        S393   1.697       .  A
C387        C392   1.387       .  A
C387        C388   1.395       .  A
C388        C389   1.396       .  A
C388        H399   1.083       .  S
C389        C398   1.363       .  A
C389        C390   1.385       .  A
C390        S396   1.714       .  A
C390        C391   1.408       .  A
C391        C392   1.409       .  A
C391        H400   1.083       .  S
C392        C395   1.379       .  A
S393        C394   1.721       .  A
C394        C395   1.391       .  A
C395        H401   1.083       .  S
S396        C397   1.728       .  A
C397        C398   1.386       .  A
C398        H402   1.082       .  S
O403       Ni411   1.917   1_556  S
O403        C413   1.282       .  A
O404        C414   1.282       .  A
O405       Ni411   1.902   1_556  S
O405        C415   1.277       .  A
O406        C416   1.278       .  A
O407       Ni412   1.938       .  S
O407        C416   1.285       .  A
O408        C415   1.284       .  A
O409       Ni412   1.923       .  S
O409        C414   1.281       .  A
O410        C413   1.282       .  A
C413        C780   1.475       .  S
C414        C748   1.474       .  S
C415        C764   1.468       .  S
C416        C796   1.474       .  S
O417       Ni425   1.921       .  S
O417        C427   1.281       .  A
O418        C428   1.282       .  A
O419       Ni425   1.930       .  S
O419        C429   1.284       .  A
O420        C430   1.283       .  A
O421        C430   1.280   1_455  A
O422       Ni426   1.927       .  S
O422        C429   1.282   1_455  A
O423        C428   1.283   1_455  A
O424       Ni426   1.929       .  S
O424        C427   1.284   1_455  A
Ni425      Ni426   2.386   1_655  S
C427        C687   1.480       .  S
C428        C716   1.481       .  S
C429        C732   1.484       .  S
C430        C700   1.478       .  S
O431       Ni439   1.904       .  S
O431        C441   1.279   1_545  A
O432        C442   1.280   1_545  A
O433       Ni439   1.906       .  S
O433        C443   1.280   1_545  A
O434        C444   1.279   1_545  A
O435        C444   1.284       .  A
O436       Ni440   1.935       .  S
O436        C443   1.283       .  A
O437        C442   1.283       .  A
O438       Ni440   1.935       .  S
O438        C441   1.284       .  A
Ni439      Ni440   2.388   1_545  S
C441        C623   1.474       .  S
C442        C652   1.477       .  S
C443        C671   1.478       .  S
C444        C639   1.475       .  S
C445        C446   1.530       .  S
C445        C451   1.538       .  S
C445        C449   1.529       .  S
C445        C591   1.526       .  S
C446        H453   1.085       .  S
C446        C447   1.370       .  D
C447        C448   1.549   1_455  S
C447        C703   1.491   1_455  S
C448        C452   1.551       .  S
C448        C450   1.548   1_655  S
C448        H454   1.109       .  S
C449        H455   1.086       .  S
C449        C450   1.366       .  D
C450        C684   1.486       .  S
C451        H456   1.082       .  S
C451        C452   1.373   1_455  D
C452        C607   1.498       .  S
C457        C458   1.537       .  S
C457        C463   1.537       .  S
C457        C461   1.535       .  S
C457        C575   1.524       .  S
C458        H465   1.085       .  S
C458        C459   1.374       .  D
C459        C460   1.546   1_655  S
C459        C719   1.493       .  S
C460        C464   1.544       .  S
C460        C462   1.547   1_455  S
C460        H466   1.110       .  S
C461        H467   1.086       .  S
C461        C462   1.368       .  D
C462        C735   1.487       .  S
C463        H468   1.084       .  S
C463        C464   1.364   1_655  D
C464        C559   1.486       .  S
C469        C470   1.538       .  S
C469        C475   1.537       .  S
C469        C473   1.537       .  S
C469        C556   1.525       .  S
C470        H477   1.083       .  S
C470        C471   1.367       .  D
C471        C472   1.543       .  S
C471        C783   1.483       .  S
C472        C476   1.541       .  S
C472        C474   1.543       .  S
C472        H478   1.109       .  S
C473        H479   1.083       .  S
C473        C474   1.373       .  D
C474        C799   1.495       .  S
C475        H480   1.086       .  S
C475        C476   1.365       .  D
C476        C543   1.481       .  S
C481        C482   1.527       .  S
C481        C487   1.529       .  S
C481        C485   1.531       .  S
C481        C540   1.524       .  S
C482        H489   1.086       .  S
C482        C483   1.369       .  D
C483        C484   1.546       .  S
C483        C655   1.484       .  S
C484        C488   1.555   1_545  S
C484        C486   1.549       .  S
C484        H490   1.107   1_545  S
C485        H491   1.083       .  S
C485        C486   1.368       .  D
C486        C668   1.493       .  S
C487        H492   1.085       .  S
C487        C488   1.373   1_545  D
C488        C588   1.495       .  S
C493        C494   1.529       .  S
C493        C499   1.530   1_545  S
C493        C497   1.525       .  S
C493        C572   1.522       .  S
C494        H501   1.086       .  S
C494        C495   1.369   1_545  D
C495        C496   1.544       .  S
C495        C620   1.483       .  S
C496        C500   1.556       .  S
C496        C498   1.548       .  S
C496        H502   1.109       .  S
C497        H503   1.084       .  S
C497        C498   1.369   1_545  D
C498        C636   1.492       .  S
C499        H504   1.082       .  S
C499        C500   1.371       .  D
C500        C527   1.494       .  S
C505        C506   1.521       .  S
C505        C511   1.537       .  S
C505        C509   1.531       .  S
C505        C524   1.521       .  S
C506        H513   1.086       .  S
C506        C507   1.363       .  D
C507        C508   1.548       .  S
C507        C751   1.487       .  S
C508        C512   1.552       .  S
C508        C510   1.548       .  S
C508        H514   1.108       .  S
C509        H515   1.084       .  S
C509        C510   1.371       .  D
C510        C767   1.491       .  S
C511        H516   1.081       .  S
C511        C512   1.375       .  D
C512        C604   1.499       .  S
C517        S523   1.706       .  A
C517        C522   1.385       .  A
C517        C518   1.408       .  A
C518        C519   1.406       .  A
C518        H529   1.083       .  S
C519        C528   1.381       .  A
C519        C520   1.386       .  A
C520        S526   1.697       .  A
C520        C521   1.401       .  A
C521        C522   1.400       .  A
C521        H530   1.083       .  S
C522        C525   1.374       .  A
S523        C524   1.732       .  A
C524        C525   1.390       .  A
C525        H531   1.080       .  S
S526        C527   1.729       .  A
C527        C528   1.392       .  A
C528        H532   1.082       .  S
C533        S539   1.703       .  A
C533        C538   1.385       .  A
C533        C534   1.402       .  A
C534        C535   1.402       .  A
C534        H545   1.083       .  S
C535        C544   1.373       .  A
C535        C536   1.387       .  A
C536        S542   1.710       .  A
C536        C537   1.406       .  A
C537        C538   1.406       .  A
C537        H546   1.083       .  S
C538        C541   1.377       .  A
S539        C540   1.731       .  A
C540        C541   1.392       .  A
C541        H547   1.083       .  S
S542        C543   1.726       .  A
C543        C544   1.386       .  A
C544        H548   1.083       .  S
C549        S555   1.707       .  A
C549        C554   1.384       .  A
C549        C550   1.402       .  A
C550        C551   1.404       .  A
C550        H561   1.083       .  S
C551        C560   1.370       .  A
C551        C552   1.386       .  A
C552        S558   1.715       .  A
C552        C553   1.406       .  A
C553        C554   1.408       .  A
C553        H562   1.083       .  S
C554        C557   1.375       .  A
S555        C556   1.728       .  A
C556        C557   1.396       .  A
C557        H563   1.080       .  S
S558        C559   1.724       .  A
C559        C560   1.390       .  A
C560        H564   1.083       .  S
C565        S571   1.705       .  A
C565        C570   1.385       .  A
C565        C566   1.405       .  A
C566        C567   1.405       .  A
C566        H577   1.082       .  S
C567        C576   1.376       .  A
C567        C568   1.385       .  A
C568        S574   1.704       .  A
C568        C569   1.403       .  A
C569        C570   1.403       .  A
C569        H578   1.082       .  S
C570        C573   1.374       .  A
S571        C572   1.730       .  A
C572        C573   1.392       .  A
C573        H579   1.081       .  S
S574        C575   1.731       .  A
C575        C576   1.391       .  A
C576        H580   1.082       .  S
C581        S587   1.701       .  A
C581        C586   1.385       .  A
C581        C582   1.402       .  A
C582        C583   1.402       .  A
C582        H593   1.084       .  S
C583        C592   1.375       .  A
C583        C584   1.385       .  A
C584        S590   1.708       .  A
C584        C585   1.408       .  A
C585        C586   1.407       .  A
C585        H594   1.084       .  S
C586        C589   1.380       .  A
S587        C588   1.729       .  A
C588        C589   1.393       .  A
C589        H595   1.082       .  S
S590        C591   1.732       .  A
C591        C592   1.392       .  A
C592        H596   1.081       .  S
C597        S603   1.720       .  A
C597        C602   1.384       .  A
C597        C598   1.413       .  A
C598        C599   1.414       .  A
C598        H609   1.082       .  S
C599        C608   1.385       .  A
C599        C600   1.385       .  A
C600        S606   1.702       .  A
C600        C601   1.400       .  A
C601        C602   1.400       .  A
C601        H610   1.083       .  S
C602        C605   1.370       .  A
S603        C604   1.732       .  A
C604        C605   1.391       .  A
C605        H611   1.082       .  S
S606        C607   1.727       .  A
C607        C608   1.396       .  A
C608        H612   1.082       .  S
C613        S619   1.718       .  A
C613        C618   1.385   1_565  A
C613        C614   1.409       .  A
C614        C615   1.410       .  A
C614        H625   1.082       .  S
C615        C624   1.378       .  A
C615        C616   1.387   1_565  A
C616        S622   1.699       .  A
C616        C617   1.395       .  A
C617        C618   1.397       .  A
C617        H626   1.083       .  S
C618        C621   1.363       .  A
S619        C620   1.727       .  A
C620        C621   1.385   1_565  A
C621        H627   1.083       .  S
S622        C623   1.721   1_545  A
C623        C624   1.391       .  A
C624        H628   1.083       .  S
C629        S635   1.721       .  A
C629        C634   1.383       .  A
C629        C630   1.412       .  A
C630        C631   1.413       .  A
C630        H641   1.082       .  S
C631        C640   1.381       .  A
C631        C632   1.387   1_565  A
C632        S638   1.697       .  A
C632        C633   1.393       .  A
C633        C634   1.395   1_545  A
C633        H642   1.083       .  S
C634        C637   1.360   1_565  A
S635        C636   1.731       .  A
C636        C637   1.388   1_565  A
C637        H643   1.081       .  S
S638        C639   1.720   1_545  A
C639        C640   1.393       .  A
C640        H644   1.082       .  S
C645        S651   1.720       .  A
C645        C650   1.385   1_565  A
C645        C646   1.411       .  A
C646        C647   1.412       .  A
C646        H657   1.082       .  S
C647        C656   1.381       .  A
C647        C648   1.387   1_565  A
C648        S654   1.696       .  A
C648        C649   1.394       .  A
C649        C650   1.395       .  A
C649        H658   1.083       .  S
C650        C653   1.362       .  A
S651        C652   1.729       .  A
C652        C653   1.383   1_565  A
C653        H659   1.083       .  S
S654        C655   1.722       .  A
C655        C656   1.393   1_545  A
C656        H660   1.082       .  S
C661        S667   1.691       .  A
C661        C666   1.386   1_545  A
C661        C662   1.394       .  A
C662        C663   1.394       .  A
C662        H673   1.083       .  S
C663        C672   1.364       .  A
C663        C664   1.385   1_545  A
C664        S670   1.720       .  A
C664        C665   1.413       .  A
C665        C666   1.413       .  A
C665        H674   1.082       .  S
C666        C669   1.384       .  A
S667        C668   1.725       .  A
C668        C669   1.395   1_545  A
C669        H675   1.082       .  S
S670        C671   1.730       .  A
C671        C672   1.383   1_565  A
C672        H676   1.083       .  S
C677        S683   1.700       .  A
C677        C682   1.387   1_455  A
C677        C678   1.401       .  A
C678        C679   1.400       .  A
C678        H689   1.082       .  S
C679        C688   1.373       .  A
C679        C680   1.386   1_455  A
C680        S686   1.712       .  A
C680        C681   1.408       .  A
C681        C682   1.407       .  A
C681        H690   1.082       .  S
C682        C685   1.380       .  A
S683        C684   1.726       .  A
C684        C685   1.390   1_455  A
C685        H691   1.082       .  S
S686        C687   1.728       .  A
C687        C688   1.387   1_655  A
C688        H692   1.083       .  S
C693        S699   1.703       .  A
C693        C698   1.387   1_455  A
C693        C694   1.399       .  A
C694        C695   1.400       .  A
C694        H705   1.083       .  S
C695        C704   1.368       .  A
C695        C696   1.385   1_455  A
C696        S702   1.716       .  A
C696        C697   1.409       .  A
C697        C698   1.409       .  A
C697        H706   1.082       .  S
C698        C701   1.379       .  A
S699        C700   1.722   1_455  A
C700        C701   1.392       .  A
C701        H707   1.082       .  S
S702        C703   1.728       .  A
C703        C704   1.390   1_655  A
C704        H708   1.082       .  S
C709        S715   1.704       .  A
C709        C714   1.387       .  A
C709        C710   1.399       .  A
C710        C711   1.400       .  A
C710        H721   1.082       .  S
C711        C720   1.370       .  A
C711        C712   1.385   1_655  A
C712        S718   1.717       .  A
C712        C713   1.411       .  A
C713        C714   1.411   1_455  A
C713        H722   1.082       .  S
C714        C717   1.381   1_655  A
S715        C716   1.722       .  A
C716        C717   1.394   1_655  A
C717        H723   1.083       .  S
S718        C719   1.731   1_455  A
C719        C720   1.388       .  A
C720        H724   1.082       .  S
C725        S731   1.711       .  A
C725        C730   1.386       .  A
C725        C726   1.404       .  A
C726        C727   1.405       .  A
C726        H737   1.083       .  S
C727        C736   1.373       .  A
C727        C728   1.386       .  A
C728        S734   1.715   1_655  A
C728        C729   1.407   1_655  A
C729        C730   1.408   1_455  A
C729        H738   1.083       .  S
C730        C733   1.377   1_655  A
S731        C732   1.725       .  A
C732        C733   1.392   1_655  A
C733        H739   1.083       .  S
S734        C735   1.724   1_455  A
C735        C736   1.390       .  A
C736        H740   1.083       .  S
C741        S747   1.714       .  A
C741        C746   1.386       .  A
C741        C742   1.410       .  A
C742        C743   1.409       .  A
C742        H753   1.082       .  S
C743        C752   1.381       .  A
C743        C744   1.386       .  A
C744        S750   1.691       .  A
C744        C745   1.394       .  A
C745        C746   1.394       .  A
C745        H754   1.082       .  S
C746        C749   1.365       .  A
S747        C748   1.728       .  A
C748        C749   1.382       .  A
C749        H755   1.083       .  S
S750        C751   1.726       .  A
C751        C752   1.392       .  A
C752        H756   1.082       .  S
C757        S763   1.701       .  A
C757        C762   1.388       .  A
C757        C758   1.398       .  A
C758        C759   1.399       .  A
C758        H769   1.084       .  S
C759        C768   1.367       .  A
C759        C760   1.385       .  A
C760        S766   1.712       .  A
C760        C761   1.406       .  A
C761        C762   1.407       .  A
C761        H770   1.083       .  S
C762        C765   1.377       .  A
S763        C764   1.721       .  A
C764        C765   1.387       .  A
C765        H771   1.083       .  S
S766        C767   1.728       .  A
C767        C768   1.390       .  A
C768        H772   1.082       .  S
C773        S779   1.711       .  A
C773        C778   1.386       .  A
C773        C774   1.405       .  A
C774        C775   1.406       .  A
C774        H785   1.082       .  S
C775        C784   1.376       .  A
C775        C776   1.387       .  A
C776        S782   1.703       .  A
C776        C777   1.400       .  A
C777        C778   1.401       .  A
C777        H786   1.082       .  S
C778        C781   1.370       .  A
S779        C780   1.726       .  A
C780        C781   1.386       .  A
C781        H787   1.083       .  S
S782        C783   1.725       .  A
C783        C784   1.389       .  A
C784        H788   1.082       .  S
C789        S795   1.703       .  A
C789        C794   1.387       .  A
C789        C790   1.400       .  A
C790        C791   1.401       .  A
C790        H801   1.083       .  S
C791        C800   1.370       .  A
C791        C792   1.384       .  A
C792        S798   1.711       .  A
C792        C793   1.408       .  A
C793        C794   1.408       .  A
C793        H802   1.082       .  S
C794        C797   1.379       .  A
S795        C796   1.722       .  A
C796        C797   1.389       .  A
C797        H803   1.083       .  S
S798        C799   1.730       .  A
C799        C800   1.391       .  A
C800        H804   1.081       .  S
