geometry optimzed in LAMMPS
_audit_creation_date              2020-11-30 
_audit_creation_method            'lammps2cif' 
_symmetry_space_group_name_H-M    'P1' 
_symmetry_Int_Tables_number       1 
_symmetry_cell_setting            triclinic 
loop_ 
_symmetry_equiv_pos_as_xyz 
  x,y,z 
_cell_length_a                    24.24606746 
_cell_length_b                    48.87500708676721 
_cell_length_c                    20.75362712430598 
_cell_angle_alpha                 89.98082237119108 
_cell_angle_beta                  93.27035350274966 
_cell_angle_gamma                 90.55731268593338 
loop_ 
_atom_site_label 
_atom_site_type_symbol 
_atom_site_fract_x 
_atom_site_fract_y 
_atom_site_fract_z 
_atom_site_charge 
C1          C  0.99818099  0.45529925  0.38526940    -0.00100
C2          C  0.00617539  0.52121498  0.13555889    -0.00100
O3          O  0.71887188  0.16848058  0.07881198    -0.55400
C4          C  0.76664346  0.17738064  0.23537900     0.77200
O5          O  0.72015136  0.09756268  0.17742001    -0.56500
C6          C  0.75859391  0.18253280  0.05915850     0.77200
C7          C  0.88189971  0.10981207  0.13453101     0.79600
Cd8        Cd  0.77613129  0.13592623  0.13965723     1.37500
O9          O  0.81223577  0.17188835  0.21201744    -0.55400
O10         O  0.85981041  0.11362965  0.18773487    -0.54200
C11         C  0.69239206  0.09388156  0.12437006     0.79600
O12         O  0.85309422  0.11633433  0.08403649    -0.56600
O13         O  0.72862006  0.15961890  0.22617018    -0.55000
O14         O  0.80592489  0.17177407  0.06540194    -0.55000
O15         O  0.70486636  0.10905026  0.07775007    -0.54200
O16         O  0.75775346  0.30762813  0.30678862    -0.55400
C17         C  0.74588534  0.29571298  0.48337097     0.77200
O18         O  0.78109205  0.37276336  0.43857045    -0.56500
C19         C  0.72267388  0.28849016  0.31255846     0.77200
C20         C  0.61165546  0.36039956  0.37712621     0.79600
Cd21       Cd  0.72011579  0.33660205  0.38984622     1.37500
O22         O  0.78227325  0.30648537  0.45010605    -0.55400
O23         O  0.63781610  0.35803310  0.43150515    -0.54200
C24         C  0.80665005  0.37775308  0.38813092     0.79600
O25         O  0.63811807  0.35426704  0.32820234    -0.56600
O26         O  0.70053008  0.30834359  0.48473196    -0.55000
O27         O  0.68077904  0.29424553  0.34325389    -0.55000
O28         O  0.78982616  0.36491886  0.33754881    -0.54200
O29         O  0.19008314  0.16916003  0.18110073    -0.55400
C30         C  0.22433467  0.17562749  0.00570714     0.77200
O31         O  0.27116184  0.09397590  0.07115003    -0.56500
C32         C  0.23531548  0.18240376  0.18238403     0.77200
C33         C  0.11433400  0.10917574  0.11667804     0.79600
Cd34       Cd  0.21993944  0.13489524  0.10412194     1.37500
O35         O  0.26604378  0.16101638  0.02026751    -0.55400
O36         O  0.14422646  0.11708668  0.16543729    -0.54200
C37         C  0.30342357  0.09375146  0.12144291     0.79600
O38         O  0.13558873  0.11125326  0.06235050    -0.56600
O39         O  0.17872359  0.16672017  0.02412423    -0.55000
O40         O  0.27525301  0.17071221  0.15760742    -0.55000
O41         O  0.29519777  0.11149694  0.16411928    -0.54200
O42         O  0.21219066  0.29874660  0.40543003    -0.55400
C43         C  0.25393988  0.29544220  0.26242621     0.77200
O44         O  0.20690952  0.37417599  0.31985483    -0.56500
C45         C  0.25323523  0.28689853  0.43284078     0.77200
C46         C  0.37493965  0.35955122  0.36471651     0.79600
Cd47       Cd  0.26538123  0.33594287  0.36014088     1.37500
O48         O  0.30077457  0.30476520  0.28179855    -0.55400
O49         O  0.35118034  0.35354620  0.41593881    -0.54200
C50         C  0.18475951  0.37856987  0.37274646     0.79600
O51         O  0.34591516  0.35690142  0.31221842    -0.56600
O52         O  0.21262215  0.30951924  0.27617916    -0.55000
O53         O  0.29761788  0.30084813  0.43870743    -0.55000
O54         O  0.20164140  0.36401033  0.42030520    -0.54200
C55         C  0.49587473  0.95564612  0.37171230    -0.00100
C56         C  0.49622514  0.02192358  0.12195748    -0.00100
O57         O  0.77748982  0.67125520  0.19034730    -0.55400
C58         C  0.76176493  0.68060693  0.01735374     0.77200
O59         O  0.81001402  0.61453011  0.17225105    -0.56500
C60         C  0.73572243  0.68667060  0.18827844     0.77200
C61         C  0.62834325  0.61662943  0.11459451     0.79600
Cd62       Cd  0.73778399  0.63938889  0.10920223     1.37500
O63         O  0.79847198  0.67156005  0.05707769    -0.55400
O64         O  0.65887942  0.62162260  0.16499850    -0.54200
C65         C  0.81957802  0.59720583  0.12911117     0.79600
O66         O  0.65068158  0.61969698  0.06114489    -0.56600
O67         O  0.71839297  0.66602229  0.00919226    -0.55000
O68         O  0.69220494  0.67724512  0.15974733    -0.55000
O69         O  0.78945033  0.59830544  0.07716018    -0.54200
O70         O  0.72214184  0.80735265  0.41726029    -0.55400
C71         C  0.75123025  0.80035266  0.26127744     0.77200
O72         O  0.70972926  0.87139945  0.41342130    -0.56500
C73         C  0.76493017  0.79408353  0.43453935     0.77200
C74         C  0.88017917  0.86402222  0.35788814     0.79600
Cd75       Cd  0.77038186  0.84161580  0.35503309     1.37500
O76         O  0.71102812  0.81177011  0.28619955    -0.55400
O77         O  0.85559570  0.85954055  0.40933087    -0.54200
C78         C  0.69015870  0.88401646  0.36402308     0.79600
O79         O  0.85156797  0.86074583  0.30528670    -0.56600
O80         O  0.79726161  0.81276071  0.26717622    -0.55000
O81         O  0.81066107  0.80599010  0.42666082    -0.55000
O82         O  0.71070139  0.87835782  0.31085772    -0.54200
O83         O  0.22930101  0.66513800  0.06786323    -0.55400
C84         C  0.26121001  0.67634961  0.23661597     0.77200
O85         O  0.23095983  0.59640360  0.18873729    -0.56500
C86         C  0.26808824  0.68241114  0.06288529     0.77200
C87         C  0.39276788  0.61551083  0.13389999     0.79600
Cd88       Cd  0.28260761  0.63562793  0.14453876     1.37500
O89         O  0.30840008  0.66540012  0.23706302    -0.55400
O90         O  0.37210525  0.61835516  0.18832580    -0.54200
C91         C  0.20533338  0.59063898  0.13534529     0.79600
O92         O  0.36058747  0.61987015  0.08470582    -0.56600
O93         O  0.22241022  0.66375081  0.20575773    -0.55000
O94         O  0.31512094  0.67526310  0.08593552    -0.55000
O95         O  0.21855537  0.60440631  0.08676252    -0.54200
O96         O  0.18662844  0.79958901  0.31144957    -0.55400
C97         C  0.23801400  0.79350715  0.47508728     0.77200
O98         O  0.28386089  0.87157666  0.43229680    -0.56500
C99         C  0.23375934  0.78989736  0.30246811     0.77200
C100        C  0.11657094  0.86118134  0.37166398     0.79600
Cd101      Cd  0.22300054  0.83604879  0.38290302     1.37500
O102        O  0.27771394  0.80909193  0.46182650    -0.55400
O103        O  0.14191001  0.85745949  0.42612407    -0.54200
C104        C  0.30832716  0.87692487  0.38124663     0.79600
O105        O  0.14326475  0.85582104  0.32243229    -0.56600
O106        O  0.19016719  0.80179239  0.45795819    -0.55000
O107        O  0.27478882  0.80513517  0.31806439    -0.55000
O108        O  0.29064598  0.86454882  0.33038196    -0.54200
C109        C  0.30136807  0.75520455  0.50873217     0.26000
C110        C  0.24737092  0.76565164  0.50155611    -0.22100
C111        C  0.20239934  0.74767084  0.50906072     0.20900
C112        C  0.20437331  0.71952462  0.02140709     0.26000
C113        C  0.25840212  0.71039365  0.03718221    -0.22000
C114        C  0.31011372  0.72763129  0.52349827     0.20900
F115        F  0.36284253  0.71848139  0.53001082    -0.12000
F116        F  0.34605093  0.77142546  0.49968469    -0.14300
F117        F  0.16043609  0.70213426  0.02281040    -0.14300
F118        F  0.14214205  0.75459187  0.98840783    -0.12000
C119        C  0.19453449  0.74450663  0.26566630     0.26000
C120        C  0.24083322  0.76114582  0.28241034    -0.22100
C121        C  0.29316409  0.74888624  0.29013042     0.20900
C122        C  0.29917661  0.72083495  0.28029519     0.26000
C123        C  0.25309017  0.70426176  0.26208613    -0.22000
C124        C  0.20054545  0.71643248  0.25575627     0.20900
F125        F  0.15478956  0.70134315  0.23832774    -0.12000
F126        F  0.14313670  0.75531453  0.25889564    -0.14300
F127        F  0.35071351  0.71018082  0.28655098    -0.14300
F128        F  0.33884702  0.76390111  0.30830919    -0.12000
C129        C  0.97059958  0.87467249  0.41833410     0.26000
C130        C  0.94034951  0.87036801  0.35918749    -0.22100
C131        C  0.96947896  0.86814320  0.30256637     0.20900
C132        C  0.02727273  0.86743395  0.30595808     0.26000
C133        C  0.05734955  0.86897666  0.36602609    -0.22000
C134        C  0.02839316  0.87398935  0.42173104     0.20900
F135        F  0.05566204  0.87658313  0.48042235    -0.12000
F136        F  0.94432341  0.87799635  0.47380185    -0.14300
F137        F  0.05332540  0.86314525  0.25068177    -0.14300
F138        F  0.94223884  0.86451906  0.24414350    -0.12000
C139        C  0.53278242  0.60981411  0.06232289     0.26000
C140        C  0.56859663  0.60980406  0.11827369    -0.22100
C141        C  0.54546506  0.60693730  0.17872057     0.20900
C142        C  0.48812013  0.60684918  0.18357998     0.26000
C143        C  0.45234734  0.60945212  0.12805444    -0.22000
C144        C  0.47536820  0.60958025  0.06716232     0.20900
F145        F  0.44254495  0.61112222  0.01205614    -0.12000
F146        F  0.55299395  0.61180126  0.00279633    -0.14300
F147        F  0.46795591  0.60573149  0.24323817    -0.14300
F148        F  0.57826480  0.60566974  0.23386852    -0.12000
C149        C  0.72311976  0.71896730  0.94881185     0.26000
C150        C  0.76630010  0.70847815  0.98938243    -0.22100
C151        C  0.80867954  0.72656704  0.01274876     0.20900
C152        C  0.80678161  0.75446389  0.99761550     0.26000
C153        C  0.76170527  0.76518446  0.45614799    -0.22000
C154        C  0.71139758  0.75051541  0.44814246     0.20900
F155        F  0.66412443  0.76316954  0.42712402    -0.12000
F156        F  0.68159135  0.70240853  0.92482857    -0.14300
F157        F  0.84795441  0.77116133  0.02197358    -0.14300
F158        F  0.85123600  0.71756924  0.05228305    -0.12000
C159        C  0.69092245  0.73101730  0.21446642     0.26000
C160        C  0.73905443  0.71529119  0.21121740    -0.22100
C161        C  0.79087427  0.72834121  0.22029252     0.20900
C162        C  0.79457695  0.75640728  0.23191418     0.26000
C163        C  0.74652806  0.77218432  0.23551620    -0.22000
C164        C  0.69461030  0.75912466  0.22682073     0.20900
F165        F  0.64722314  0.77340255  0.23140584    -0.12000
F166        F  0.64009908  0.71921596  0.20591468    -0.14300
F167        F  0.84558864  0.76782206  0.24240469    -0.14300
F168        F  0.83842976  0.71411125  0.21669862    -0.12000
C169        C  0.60463975  0.89954596  0.41399812     0.26000
C170        C  0.64387372  0.90335650  0.36774768    -0.22100
C171        C  0.63663309  0.92468711  0.32307921     0.20900
C172        C  0.59074181  0.94184281  0.32381626     0.25600
C173        C  0.54951871  0.93796254  0.36945072    -0.22000
C174        C  0.55818318  0.91616706  0.41453027     0.20900
F175        F  0.52261344  0.91159822  0.46171250    -0.12000
F176        F  0.61036153  0.87914424  0.45825581    -0.14300
F177        F  0.58862558  0.96222418  0.27964487    -0.14300
F178        F  0.67482308  0.92936019  0.27884350    -0.12000
C179        C  0.44208599  0.91089188  0.33690291     0.26000
C180        C  0.44627675  0.93442857  0.37767263    -0.22100
C181        C  0.40853113  0.93453469  0.42845678     0.20900
C182        C  0.36384305  0.91621719  0.42882522     0.26000
C183        C  0.35590425  0.89616702  0.38110946    -0.22000
C184        C  0.39643424  0.89316492  0.33629013     0.20900
F185        F  0.39322502  0.87229118  0.29300190    -0.12000
F186        F  0.48218686  0.90490454  0.29604716    -0.14300
F187        F  0.32896513  0.91778489  0.47762755    -0.14300
F188        F  0.41631334  0.94982503  0.48254022    -0.12000
C189        C  0.54267420  0.97289857  0.48466894     0.26000
C190        C  0.50049808  0.97479917  0.43401263    -0.22100
C191        C  0.45996505  0.99494126  0.44334776     0.20900
C192        C  0.45824979  0.01081980  0.00065686     0.26000
C193        C  0.49413787  0.00515730  0.05616473    -0.22000
C194        C  0.53672798  0.98640160  0.04577408     0.20900
F195        F  0.57545311  0.98098377  0.09363782    -0.12000
F196        F  0.59127786  0.96022601  0.47714815    -0.14300
F197        F  0.42222598  0.03184034  0.99921848    -0.14300
F198        F  0.41933266  0.99933376  0.39680457    -0.12000
C199        C  0.46530682  0.96372769  0.24591446     0.26000
C200        C  0.48775385  0.97380072  0.30712956    -0.22100
C201        C  0.50983244  0.00087085  0.30445799     0.20900
C202        C  0.50749953  0.01631043  0.24712845     0.26000
C203        C  0.49459301  0.00423366  0.18566551    -0.22000
C204        C  0.47300722  0.97740503  0.18711157     0.20900
F205        F  0.45460890  0.96462142  0.13185320    -0.12000
F206        F  0.43094156  0.94197964  0.24013314    -0.14300
F207        F  0.52303593  0.04297068  0.25204553    -0.14300
F208        F  0.53687391  0.01266652  0.35645248    -0.12000
C209        C  0.44961686  0.06896399  0.14636431     0.26000
C210        C  0.44516221  0.04097711  0.12740717    -0.22100
C211        C  0.39067591  0.02994148  0.11877820     0.20900
C212        C  0.34437456  0.04693705  0.11662483     0.26000
C213        C  0.35058045  0.07499367  0.12854065    -0.22000
C214        C  0.40308545  0.08556548  0.14611376     0.20900
F215        F  0.40977511  0.11248827  0.16112979    -0.12000
F216        F  0.49821911  0.08070566  0.16741536    -0.14300
F217        F  0.29340475  0.03592404  0.10302144    -0.14300
F218        F  0.38210136  0.00290458  0.10707819    -0.12000
C219        C  0.29534678  0.25276307  0.22032062     0.26000
C220        C  0.24798402  0.26771287  0.23379836    -0.22100
C221        C  0.19649568  0.25400191  0.23193315     0.20900
C222        C  0.19271837  0.22600365  0.21823307     0.26000
C223        C  0.24023918  0.21103112  0.20558462    -0.22000
C224        C  0.29154403  0.22483248  0.20644042     0.20900
F225        F  0.33847499  0.21135782  0.19391501    -0.12000
F226        F  0.34595404  0.26497618  0.22201016    -0.14300
F227        F  0.14219734  0.21370032  0.21667198    -0.14300
F228        F  0.14975808  0.26738061  0.24561086    -0.12000
C229        C  0.29820974  0.24383615  0.47501645     0.26000
C230        C  0.25049809  0.25751560  0.45107837    -0.22100
C231        C  0.20201790  0.24195263  0.43662521     0.20900
C232        C  0.18261906  0.22018937  0.96843700     0.26000
C233        C  0.22956084  0.20350697  0.97769680    -0.22000
C234        C  0.28215253  0.21560778  0.97260085     0.20900
F235        F  0.32869890  0.20046135  0.98041521    -0.12000
F236        F  0.34665107  0.25761035  0.48662737    -0.14300
F237        F  0.13098233  0.20949616  0.97198485    -0.14300
F238        F  0.15548230  0.25388927  0.41079903    -0.12000
C239        C  0.52155517  0.36522233  0.31182506     0.26000
C240        C  0.55192859  0.36750936  0.37157341    -0.22100
C241        C  0.52294757  0.37260475  0.42727693     0.20900
C242        C  0.46504219  0.37204894  0.42449090     0.26000
C243        C  0.43473239  0.36697543  0.36571320    -0.22000
C244        C  0.46369741  0.36525006  0.30886156     0.20900
F245        F  0.43631798  0.36141261  0.25060581    -0.12000
F246        F  0.54748981  0.36093166  0.25647975    -0.14300
F247        F  0.43884103  0.37507734  0.48010463    -0.14300
F248        F  0.55045618  0.37650479  0.48542700    -0.12000
C249        C  0.60250170  0.07683929  0.07201764     0.26000
C250        C  0.64667538  0.07350493  0.11805604    -0.22100
C251        C  0.64580385  0.05097709  0.15974147     0.20900
C252        C  0.60024736  0.03320891  0.15869749     0.26000
C253        C  0.55169435  0.03862442  0.11897004    -0.22000
C254        C  0.55617611  0.05948078  0.07178734     0.20900
F255        F  0.51375228  0.06448616  0.02803378    -0.12000
F256        F  0.60255466  0.09785795  0.02921732    -0.14300
F257        F  0.60545526  0.01044631  0.19581541    -0.14300
F258        F  0.68972115  0.04579902  0.20137068    -0.12000
C259        C  0.97541086  0.09982888  0.18765162     0.26000
C260        C  0.94005386  0.10070312  0.13141831    -0.22100
C261        C  0.96311559  0.09712377  0.07123320     0.20900
C262        C  0.02047680  0.09706180  0.06672307     0.26000
C263        C  0.05590782  0.10046281  0.12237772    -0.22000
C264        C  0.03281612  0.09975955  0.18316277     0.20900
F265        F  0.06558605  0.10095670  0.23839800    -0.12000
F266        F  0.95486866  0.10114132  0.24706778    -0.14300
F267        F  0.04096022  0.09580934  0.00726068    -0.14300
F268        F  0.93035142  0.09550954  0.01606309    -0.12000
C269        C  0.79638084  0.25131572  0.49050767     0.26000
C270        C  0.75363882  0.26803703  0.51133181    -0.22100
C271        C  0.71346403  0.25632173  0.54937512     0.20900
C272        C  0.70132207  0.22486251  0.04876560     0.26000
C273        C  0.75078335  0.21117843  0.03725508    -0.22000
C274        C  0.79809128  0.22352547  0.50613877     0.20900
F275        F  0.83914913  0.20803116  0.48392002    -0.12000
F276        F  0.83562169  0.26149179  0.45269297    -0.14300
F277        F  0.65770405  0.21122090  0.07218910    -0.14300
F278        F  0.64765181  0.26517281  0.04804746    -0.12000
C279        C  0.78651107  0.25231639  0.27693097     0.26000
C280        C  0.73281418  0.26012205  0.29101612    -0.22100
C281        C  0.69151502  0.23969418  0.29346534     0.20900
C282        C  0.70324571  0.21234244  0.27975987     0.26000
C283        C  0.75671015  0.20469488  0.26383048    -0.22000
C284        C  0.79835614  0.22503467  0.26389107     0.20900
F285        F  0.85071865  0.21879796  0.24959721    -0.12000
F286        F  0.82833248  0.27099916  0.27703038    -0.14300
F287        F  0.66168643  0.19354014  0.28037114    -0.14300
F288        F  0.63948203  0.24611587  0.30878389    -0.12000
C289        C  0.11134481  0.53062104  0.17176993     0.26000
C290        C  0.06309094  0.53659310  0.13188655    -0.22100
C291        C  0.06897131  0.55699569  0.08401961     0.20900
C292        C  0.11612376  0.57361014  0.08376149     0.26000
C293        C  0.15983823  0.57016043  0.13019589    -0.22000
C294        C  0.15782651  0.54796190  0.17282325     0.20900
F295        F  0.20129256  0.54273310  0.21508820    -0.12000
F296        F  0.11514405  0.50779980  0.20888566    -0.14300
F297        F  0.11717458  0.59436522  0.04032248    -0.14300
F298        F  0.02710626  0.56248787  0.03998678    -0.12000
C299        C  0.96371838  0.56953943  0.15852789     0.26000
C300        C  0.95694020  0.54147206  0.14096406    -0.22100
C301        C  0.90160918  0.53161237  0.13197909     0.20900
C302        C  0.85698860  0.54964058  0.12732474     0.26000
C303        C  0.86540245  0.57765012  0.13801521    -0.22000
C304        C  0.91856630  0.58719499  0.15664131     0.20900
F305        F  0.92725848  0.61405160  0.17108770    -0.12000
F306        F  0.01325569  0.58033093  0.17950283    -0.14300
F307        F  0.80542290  0.53966528  0.11218064    -0.14300
F308        F  0.89071323  0.50468395  0.12148272    -0.12000
C309        C  0.09296639  0.44015512  0.33882343     0.26000
C310        C  0.05081751  0.43672843  0.38348832    -0.22100
C311        C  0.05690546  0.41420568  0.42695602     0.20900
C312        C  0.10095269  0.39602483  0.42458331     0.26000
C313        C  0.14042247  0.39908420  0.37819944    -0.22000
C314        C  0.13615974  0.42143432  0.33591969     0.20900
F315        F  0.17472446  0.42559569  0.29187138    -0.12000
F316        F  0.09459561  0.46167542  0.29796221    -0.14300
F317        F  0.10395646  0.37488526  0.46706390    -0.14300
F318        F  0.02076705  0.41022516  0.47383127    -0.12000
C319        C  0.85993889  0.41830164  0.43373619     0.26000
C320        C  0.85447900  0.39706706  0.38862373    -0.22100
C321        C  0.89727517  0.39316879  0.34716173     0.20900
C322        C  0.94314393  0.41087613  0.34868876     0.26000
C323        C  0.94670500  0.43480036  0.38859889    -0.22000
C324        C  0.90535638  0.43633135  0.43516840     0.20900
F325        F  0.90890461  0.45344414  0.48630480    -0.12000
F326        F  0.82133378  0.42152199  0.47798560    -0.14300
F327        F  0.98378793  0.40466801  0.30875051    -0.14300
F328        F  0.89589958  0.37148147  0.30616720    -0.12000
C329        C  0.04452521  0.47126917  0.50005871     0.26000
C330        C  0.00338912  0.47416794  0.44834222    -0.22100
C331        C  0.96556943  0.49570463  0.45643740     0.20900
C332        C  0.96650308  0.51133146  0.01444269     0.26000
C333        C  0.00164464  0.50443033  0.06974069    -0.22000
C334        C  0.04121339  0.48416530  0.05902615     0.20900
F335        F  0.07946017  0.47761754  0.10663188    -0.12000
F336        F  0.09136763  0.45689205  0.49408989    -0.14300
F337        F  0.93407859  0.53375913  0.01301327    -0.14300
F338        F  0.92678983  0.50147641  0.40867292    -0.12000
C339        C  0.97877703  0.47741940  0.20094987     0.26000
C340        C  0.00314232  0.50368005  0.19939168    -0.22100
C341        C  0.01719065  0.51555994  0.26083717     0.20900
C342        C  0.01716188  0.50027032  0.31844413     0.26000
C343        C  0.99250321  0.47372161  0.32092605    -0.22000
C344        C  0.96938114  0.46411125  0.25972496     0.20900
F345        F  0.93271707  0.44327444  0.25408222    -0.12000
F346        F  0.95924520  0.46493238  0.14578650    -0.14300
F347        F  0.04440021  0.51156633  0.37094743    -0.14300
F348        F  0.03545321  0.54182785  0.26552123    -0.12000
C349        C  0.99717092  0.45581801  0.88412893    -0.00100
C350        C  0.00471752  0.52198797  0.63470320    -0.00100
O351        O  0.72204947  0.17077318  0.58897370    -0.55400
C352        C  0.76492373  0.17601524  0.74567957     0.77200
O353        O  0.72356421  0.09598146  0.67960274    -0.56500
C354        C  0.76257517  0.18332334  0.56668524     0.77200
C355        C  0.88380750  0.11144518  0.63869532     0.79600
Cd356      Cd  0.77694752  0.13619079  0.64597151     1.37500
O357        O  0.81196373  0.16941682  0.72769004    -0.55400
O358        O  0.86253090  0.11502291  0.69252536    -0.54200
C359        C  0.69576680  0.09302530  0.62634189     0.79600
O360        O  0.85395806  0.11778980  0.58888972    -0.56600
O361        O  0.72537996  0.16008861  0.72827291    -0.55000
O362        O  0.80848846  0.17112691  0.57064671    -0.55000
O363        O  0.70709313  0.10942682  0.58163112    -0.54200
O364        O  0.77183573  0.30423089  0.83513198    -0.55400
C365        C  0.73294019  0.29653132  0.99156528     0.77200
O366        O  0.78089023  0.37360555  0.94207967    -0.56500
C367        C  0.73152808  0.28802383  0.82332387     0.77200
C368        C  0.61236039  0.36251770  0.88064101     0.79600
Cd369      Cd  0.71942955  0.33723978  0.89561079     1.37500
O370        O  0.77330393  0.31141111  0.97693254    -0.55400
O371        O  0.63862487  0.36066413  0.93511108    -0.54200
C372        C  0.80545039  0.37846117  0.89082802     0.79600
O373        O  0.63823069  0.35514082  0.83213331    -0.56600
O374        O  0.68528719  0.30558980  0.97624102    -0.55000
O375        O  0.68420052  0.29748483  0.83236587    -0.55000
O376        O  0.78800029  0.36533114  0.84086645    -0.54200
O377        O  0.18385977  0.17711491  0.64198823    -0.55400
C378        C  0.24196398  0.17289501  0.50558614     0.77200
O379        O  0.27296416  0.09306585  0.57533241    -0.56500
C380        C  0.22408729  0.18351251  0.68050084     0.77200
C381        C  0.11661033  0.10894741  0.61819456     0.79600
Cd382      Cd  0.22247429  0.13458120  0.60518981     1.37500
O383        O  0.28151235  0.16222350  0.53863711    -0.55400
O384        O  0.14661036  0.11682154  0.66686833    -0.54200
C385        C  0.30816907  0.09446960  0.62285754     0.79600
O386        O  0.13820327  0.11052924  0.56405536    -0.56600
O387        O  0.19574720  0.16069520  0.50698698    -0.55000
O388        O  0.25956647  0.16501141  0.69235622    -0.55000
O389        O  0.30222133  0.11356382  0.66296619    -0.54200
O390        O  0.20783232  0.30228050  0.90693522    -0.55400
C391        C  0.26006361  0.29500885  0.76791551     0.77200
O392        O  0.20565370  0.37426085  0.81817936    -0.56500
C393        C  0.24702124  0.28970304  0.93631750     0.77200
C394        C  0.37592710  0.36180209  0.86659832     0.79600
Cd395      Cd  0.26662798  0.33742077  0.86147479     1.37500
O396        O  0.30501874  0.30207643  0.79716084    -0.55400
O397        O  0.35168665  0.35595969  0.91757466    -0.54200
C398        C  0.18494203  0.37968401  0.87147150     0.79600
O399        O  0.34747293  0.35865545  0.81386074    -0.56600
O400        O  0.22054131  0.31177545  0.76986165    -0.55000
O401        O  0.29278244  0.30249193  0.94297666    -0.55000
O402        O  0.20376170  0.36639242  0.92025678    -0.54200
C403        C  0.49767552  0.95627203  0.87212202    -0.00100
C404        C  0.49945620  0.02160186  0.62113574    -0.00100
O405        O  0.78701226  0.67438302  0.67394035    -0.55400
C406        C  0.75208299  0.68035494  0.51013277     0.77200
O407        O  0.80913838  0.61545893  0.66943897    -0.56500
C408        C  0.74465735  0.68804973  0.68544214     0.77200
C409        C  0.62818997  0.61682915  0.61746331     0.79600
Cd410      Cd  0.73676996  0.64018624  0.60712283     1.37500
O411        O  0.79290143  0.66873229  0.53853231    -0.55400
O412        O  0.65878415  0.62358973  0.66665115    -0.54200
C413        C  0.81809274  0.59794691  0.62649296     0.79600
O414        O  0.64993506  0.61872559  0.56336886    -0.56600
O415        O  0.70575985  0.66850312  0.51428642    -0.55000
O416        O  0.69852650  0.67670007  0.67097268    -0.55000
O417        O  0.78743720  0.59887363  0.57492596    -0.54200
O418        O  0.72237958  0.80406686  0.90526266    -0.55400
C419        C  0.76112341  0.80141719  0.76250877     0.77200
O420        O  0.70895642  0.87050211  0.91709131    -0.56500
C421        C  0.76346451  0.79388242  0.93638344     0.77200
C422        C  0.88234569  0.86444462  0.86645120     0.79600
Cd423      Cd  0.77274930  0.84195458  0.85950134     1.37500
O424        O  0.71928503  0.81391279  0.78070744    -0.55400
O425        O  0.85745165  0.85852684  0.91687466    -0.54200
C426        C  0.69167151  0.88414276  0.86821713     0.79600
O427        O  0.85415149  0.86241171  0.81321555    -0.56600
O428        O  0.80760298  0.81239419  0.77709328    -0.55000
O429        O  0.80632565  0.80892730  0.94265341    -0.55000
O430        O  0.71452494  0.87940627  0.81600282    -0.54200
O431        O  0.23605506  0.66409956  0.55804117    -0.55400
C432        C  0.26254406  0.67817085  0.72926015     0.77200
O433        O  0.22883238  0.59818930  0.68683224    -0.56500
C434        C  0.27446796  0.68182187  0.55712102     0.77200
C435        C  0.39310916  0.61389422  0.63554399     0.79600
Cd436      Cd  0.28396514  0.63580500  0.64120455     1.37500
O437        O  0.30863535  0.66608975  0.73358324    -0.55400
O438        O  0.37142379  0.61781480  0.68896412    -0.54200
C439        C  0.20325622  0.59213175  0.63358481     0.79600
O440        O  0.36211460  0.61779107  0.58511379    -0.56600
O441        O  0.22410188  0.66619187  0.69639766    -0.55000
O442        O  0.32014305  0.67533198  0.58506354    -0.55000
O443        O  0.21749308  0.60516552  0.58434820    -0.54200
O444        O  0.19726149  0.80391137  0.79685880    -0.55400
C445        C  0.23031479  0.79326619  0.97446546     0.77200
O446        O  0.28691313  0.87176007  0.93084989    -0.56500
C447        C  0.24314949  0.79162402  0.80162156     0.77200
C448        C  0.11842884  0.86188464  0.87708963     0.79600
Cd449      Cd  0.22473418  0.83663564  0.88296552     1.37500
O450        O  0.26854202  0.81113246  0.97403911    -0.55400
O451        O  0.14595325  0.85847686  0.93024778    -0.54200
C452        C  0.31039691  0.87735415  0.87931207     0.79600
O453        O  0.14282575  0.85607501  0.82643761    -0.56600
O454        O  0.18592504  0.79896841  0.94275964    -0.55000
O455        O  0.28218771  0.80378841  0.83308959    -0.55000
O456        O  0.29209987  0.86506610  0.82862024    -0.54200
C457        C  0.29279704  0.75672896  0.01983363     0.26000
C458        C  0.23890354  0.76582030  0.00349152    -0.22100
C459        C  0.19477725  0.74686003  0.00458717     0.20900
C460        C  0.21119889  0.72008336  0.52370232     0.26000
C461        C  0.26517713  0.70973387  0.53127128    -0.22000
C462        C  0.30243629  0.72940120  0.03622783     0.20900
F463        F  0.35525035  0.72167466  0.05128247    -0.12000
F464        F  0.33684312  0.77400867  0.01767588    -0.14300
F465        F  0.16661421  0.70372134  0.53219990    -0.14300
F466        F  0.14955431  0.75655266  0.50105190    -0.12000
C467        C  0.20512598  0.74938168  0.74612060     0.26000
C468        C  0.24951597  0.76322092  0.77866497    -0.22100
C469        C  0.29708223  0.74830098  0.79835634     0.20900
C470        C  0.30005417  0.72028098  0.78597379     0.26000
C471        C  0.25564707  0.70639743  0.75344963    -0.22000
C472        C  0.20804674  0.72134667  0.73382110     0.20900
F473        F  0.16452966  0.70909751  0.70091958    -0.12000
F474        F  0.15846352  0.76287303  0.72635692    -0.14300
F475        F  0.34702043  0.70691743  0.80510654    -0.14300
F476        F  0.34070231  0.76062211  0.83093887    -0.12000
C477        C  0.97298535  0.87204425  0.92899560     0.26000
C478        C  0.94241330  0.87102471  0.86923637    -0.22100
C479        C  0.97116782  0.87227036  0.81215447     0.20900
C480        C  0.02891960  0.87157685  0.81476148     0.26000
C481        C  0.05932237  0.86980443  0.87449308    -0.22000
C482        C  0.03075483  0.87151227  0.93161461     0.20900
F483        F  0.05827879  0.87064975  0.99041687    -0.12000
F484        F  0.94711870  0.87175547  0.98532938    -0.14300
F485        F  0.05467749  0.87073616  0.75839568    -0.14300
F486        F  0.94358726  0.87213650  0.75334600    -0.12000
C487        C  0.53351034  0.60578624  0.56708133     0.26000
C488        C  0.56896445  0.60921503  0.62278890    -0.22100
C489        C  0.54570065  0.60878848  0.68351722     0.20900
C490        C  0.48831939  0.60799505  0.68805732     0.26000
C491        C  0.45274087  0.60748460  0.63196906    -0.22000
C492        C  0.47610229  0.60476545  0.57168208     0.20900
F493        F  0.44343991  0.60269923  0.51649546    -0.12000
F494        F  0.55392578  0.60512721  0.50753653    -0.14300
F495        F  0.46782867  0.60951607  0.74747961    -0.14300
F496        F  0.57821905  0.61078194  0.73881095    -0.12000
C497        C  0.70914216  0.72244592  0.46079087     0.26000
C498        C  0.75694863  0.70820683  0.48215959    -0.22100
C499        C  0.80756111  0.72274916  0.48862764     0.20900
C500        C  0.80980706  0.75086196  0.47592951     0.26000
C501        C  0.76280671  0.76501771  0.95846678    -0.22000
C502        C  0.72136393  0.74681824  0.93350090     0.20900
F503        F  0.67925840  0.75578709  0.89323600    -0.12000
F504        F  0.65942072  0.70943238  0.45371578    -0.14300
F505        F  0.85936498  0.76402218  0.48330046    -0.14300
F506        F  0.85489692  0.71001886  0.50909024    -0.12000
C507        C  0.70083972  0.73233438  0.71419534     0.26000
C508        C  0.74884155  0.71674134  0.70829066    -0.22100
C509        C  0.80070092  0.72993813  0.71556681     0.20900
C510        C  0.80448198  0.75797630  0.72811819     0.26000
C511        C  0.75650902  0.77355278  0.73462089    -0.22000
C512        C  0.70461347  0.76037109  0.72705495     0.20900
F513        F  0.65720320  0.77436331  0.73401319    -0.12000
F514        F  0.64990269  0.72053426  0.70758241    -0.14300
F515        F  0.85552890  0.76957472  0.73624435    -0.14300
F516        F  0.84819599  0.71578531  0.71063119    -0.12000
C517        C  0.60595781  0.90024539  0.91729150     0.26000
C518        C  0.64554958  0.90368316  0.87127286    -0.22100
C519        C  0.63887810  0.92490884  0.82616316     0.20900
C520        C  0.59318957  0.94223160  0.82611595     0.25600
C521        C  0.55150988  0.93863111  0.87127602    -0.22000
C522        C  0.55967205  0.91703265  0.91698173     0.20900
F523        F  0.52351345  0.91269959  0.96365779    -0.12000
F524        F  0.61109749  0.88003936  0.96211066    -0.14300
F525        F  0.59164052  0.96245837  0.78155299    -0.14300
F526        F  0.67729441  0.92925321  0.78202135    -0.12000
C527        C  0.44488026  0.91120669  0.83701998     0.26000
C528        C  0.44811756  0.93497643  0.87718579    -0.22100
C529        C  0.40892416  0.93547374  0.92630840     0.20900
C530        C  0.36390271  0.91738533  0.92535314     0.26000
C531        C  0.35750635  0.89681390  0.87876394    -0.22000
C532        C  0.39915075  0.89347414  0.83550470     0.20900
F533        F  0.39681645  0.87235380  0.79287503    -0.12000
F534        F  0.48574386  0.90514964  0.79723553    -0.14300
F535        F  0.32697397  0.91972907  0.97182046    -0.14300
F536        F  0.41546149  0.95088723  0.98028740    -0.12000
C537        C  0.54284666  0.97393879  0.98560778     0.26000
C538        C  0.50124943  0.97562676  0.93425736    -0.22100
C539        C  0.46034268  0.99567495  0.94283274     0.20900
C540        C  0.45958624  0.01049566  0.50064565     0.26000
C541        C  0.49603046  0.00471793  0.55557965    -0.22000
C542        C  0.53759982  0.98545913  0.54486679     0.20900
F543        F  0.57626635  0.97955167  0.59243274    -0.12000
F544        F  0.59193961  0.96163325  0.97869557    -0.14300
F545        F  0.42472601  0.03199744  0.49916696    -0.14300
F546        F  0.42062645  0.00015599  0.89527894    -0.12000
C547        C  0.46791164  0.96389023  0.74593003     0.26000
C548        C  0.49022250  0.97415013  0.80706597    -0.22100
C549        C  0.51252868  0.00115082  0.80403934     0.20900
C550        C  0.51111617  0.01629873  0.74628187     0.26000
C551        C  0.49764978  0.00410470  0.68507046    -0.22000
C552        C  0.47552399  0.97740708  0.68695908     0.20900
F553        F  0.45651171  0.96459480  0.63197264    -0.12000
F554        F  0.43378187  0.94205385  0.74025805    -0.14300
F555        F  0.52766290  0.04282879  0.75059033    -0.14300
F556        F  0.53867643  0.01319222  0.85628258    -0.12000
C557        C  0.45448370  0.06908076  0.64579733     0.26000
C558        C  0.44914530  0.04110245  0.62695806    -0.22100
C559        C  0.39438266  0.03039475  0.61908293     0.20900
C560        C  0.34853721  0.04762731  0.61759709     0.26000
C561        C  0.35535316  0.07564124  0.62970320    -0.22000
C562        C  0.40827883  0.08591977  0.64673229     0.20900
F563        F  0.41572742  0.11273062  0.66244466    -0.12000
F564        F  0.50364412  0.08055973  0.66571519    -0.14300
F565        F  0.29730724  0.03685392  0.60438783    -0.14300
F566        F  0.38502763  0.00342239  0.60725358    -0.12000
C567        C  0.28807296  0.24602165  0.76378632     0.26000
C568        C  0.25276072  0.26709756  0.74068693    -0.22100
C569        C  0.20648299  0.26016988  0.69995185     0.20900
C570        C  0.19599892  0.23288451  0.68227163     0.26000
C571        C  0.23133614  0.21182067  0.70552251    -0.22000
C572        C  0.27736144  0.21878545  0.74667267     0.20900
F573        F  0.31238284  0.19926796  0.77058260    -0.12000
F574        F  0.33217855  0.25149720  0.80522121    -0.14300
F575        F  0.15151513  0.22726024  0.64153691    -0.14300
F576        F  0.17121789  0.27978045  0.67715664    -0.12000
C577        C  0.28771023  0.24373185  0.96156911     0.26000
C578        C  0.24091520  0.26057103  0.95519697    -0.22100
C579        C  0.18824193  0.24832846  0.95738966     0.20900
C580        C  0.20068332  0.21377801  0.44860779     0.26000
C581        C  0.24756387  0.20039503  0.47597641    -0.22000
C582        C  0.29675981  0.21570821  0.48742262     0.20900
F583        F  0.34330320  0.20376589  0.51317147    -0.12000
F584        F  0.33915903  0.25432805  0.95570274    -0.14300
F585        F  0.15262357  0.19984764  0.43545899    -0.14300
F586        F  0.14188013  0.26362436  0.94960976    -0.12000
C587        C  0.52285188  0.36908037  0.81476216     0.26000
C588        C  0.55291560  0.37028252  0.87487674    -0.22100
C589        C  0.52361625  0.37463286  0.93069310     0.20900
C590        C  0.46571268  0.37400961  0.92751898     0.26000
C591        C  0.43565343  0.36958578  0.86827060    -0.22000
C592        C  0.46492174  0.36887969  0.81146909     0.20900
F593        F  0.43780266  0.36586420  0.75279904    -0.12000
F594        F  0.54921942  0.36621212  0.75920421    -0.14300
F595        F  0.43931879  0.37613794  0.98323292    -0.14300
F596        F  0.55079080  0.37766114  0.98932432    -0.12000
C597        C  0.60703616  0.07581738  0.57145413     0.26000
C598        C  0.65087836  0.07226864  0.61788058    -0.22100
C599        C  0.64993932  0.04934802  0.65838669     0.20900
C600        C  0.60406224  0.03176827  0.65681677     0.26000
C601        C  0.55552992  0.03769791  0.61753471    -0.22000
C602        C  0.56057066  0.05853362  0.57047481     0.20900
F603        F  0.51840679  0.06373338  0.52651392    -0.12000
F604        F  0.60737980  0.09704699  0.52925551    -0.14300
F605        F  0.60868503  0.00880383  0.69333015    -0.14300
F606        F  0.69383527  0.04374465  0.69970566    -0.12000
C607        C  0.97766594  0.10035834  0.68970670     0.26000
C608        C  0.94196900  0.10254697  0.63399526    -0.22100
C609        C  0.96448542  0.09999872  0.57317205     0.20900
C610        C  0.02174139  0.09923032  0.56805097     0.26000
C611        C  0.05772482  0.10100482  0.62366787    -0.22000
C612        C  0.03498739  0.09968944  0.68458682     0.20900
F613        F  0.06817926  0.09959712  0.73953815    -0.12000
F614        F  0.95760059  0.10075944  0.74944287    -0.14300
F615        F  0.04169020  0.09899491  0.50822566    -0.14300
F616        F  0.93142200  0.10007386  0.51811469    -0.12000
C617        C  0.79047365  0.25453341  0.00394909     0.26000
C618        C  0.74103303  0.26822458  0.01550763    -0.22100
C619        C  0.69642885  0.25297300  0.03764284     0.20900
C620        C  0.71545944  0.22855762  0.56537212     0.26000
C621        C  0.75749247  0.21179283  0.54335053    -0.22000
C622        C  0.79509373  0.22635279  0.01412458     0.20900
F623        F  0.84307645  0.21397087  0.00098366    -0.12000
F624        F  0.83387854  0.26813606  0.97992435    -0.14300
F625        F  0.67687492  0.21830214  0.60398949    -0.14300
F626        F  0.67171746  0.27160976  0.57064367    -0.12000
C627        C  0.79317680  0.24773695  0.80836469     0.26000
C628        C  0.73971839  0.25893683  0.80537314    -0.22100
C629        C  0.69419688  0.24122553  0.79260262     0.20900
C630        C  0.70213185  0.21355367  0.77848948     0.26000
C631        C  0.75583557  0.20279903  0.77725915    -0.22000
C632        C  0.80107214  0.22005850  0.79472709     0.20900
F633        F  0.85344769  0.21037997  0.79700421    -0.12000
F634        F  0.83822459  0.26348303  0.82485631    -0.14300
F635        F  0.65704261  0.19765174  0.76326089    -0.14300
F636        F  0.64170813  0.25063541  0.79311219    -0.12000
C637        C  0.10962055  0.53209136  0.67093526     0.26000
C638        C  0.06130980  0.53769257  0.63088980    -0.22100
C639        C  0.06669938  0.55817798  0.58303634     0.20900
C640        C  0.11350549  0.57508752  0.58277517     0.26000
C641        C  0.15731554  0.57185979  0.62920195    -0.22000
C642        C  0.15559592  0.54975336  0.67210508     0.20900
F643        F  0.19896444  0.54490424  0.71477189    -0.12000
F644        F  0.11397894  0.50932969  0.70817985    -0.14300
F645        F  0.11419116  0.59583591  0.53927894    -0.14300
F646        F  0.02472103  0.56339245  0.53893367    -0.12000
C647        C  0.96176419  0.57010080  0.65792754     0.26000
C648        C  0.95521466  0.54211856  0.63951803    -0.22100
C649        C  0.89995791  0.53231587  0.62916633     0.20900
C650        C  0.85549389  0.55041476  0.62344589     0.26000
C651        C  0.86379424  0.57834946  0.63529990    -0.22000
C652        C  0.91667810  0.58777116  0.65551483     0.20900
F653        F  0.92522269  0.61454223  0.67096475    -0.12000
F654        F  0.01104031  0.58080039  0.68013747    -0.14300
F655        F  0.80420779  0.54058307  0.60617360    -0.14300
F656        F  0.88906720  0.50541684  0.61829479    -0.12000
C657        C  0.09102377  0.44032243  0.83556809     0.26000
C658        C  0.04950186  0.43706849  0.88117859    -0.22100
C659        C  0.05603637  0.41460017  0.92473687     0.20900
C660        C  0.10052953  0.39667739  0.92257815     0.26000
C661        C  0.13995033  0.39987803  0.87621416    -0.22000
C662        C  0.13492079  0.42195724  0.83327494     0.20900
F663        F  0.17349136  0.42623089  0.78928342    -0.12000
F664        F  0.09115509  0.46120049  0.79276643    -0.14300
F665        F  0.10414557  0.37566806  0.96538653    -0.14300
F666        F  0.02010424  0.41052473  0.97178517    -0.12000
C667        C  0.85922514  0.41914984  0.93491097     0.26000
C668        C  0.85297195  0.39792979  0.88982937    -0.22100
C669        C  0.89486839  0.39412918  0.84710581     0.20900
C670        C  0.94094133  0.41169740  0.84794515     0.26000
C671        C  0.94542040  0.43551855  0.88810994    -0.22000
C672        C  0.90471897  0.43710595  0.93548539     0.20900
F673        F  0.90901783  0.45415550  0.98670712    -0.12000
F674        F  0.82136874  0.42242626  0.98002724    -0.14300
F675        F  0.98097446  0.40538613  0.80728409    -0.14300
F676        F  0.89245726  0.37264447  0.80552006    -0.12000
C677        C  0.04471523  0.47119678  0.99885219     0.26000
C678        C  0.00335092  0.47449386  0.94752090    -0.22100
C679        C  0.96592897  0.49611248  0.95659733     0.20900
C680        C  0.96590345  0.51139263  0.51356119     0.26000
C681        C  0.00085758  0.50492768  0.56930090    -0.22000
C682        C  0.04065099  0.48465636  0.55964308     0.20900
F683        F  0.07872048  0.47848107  0.60772843    -0.12000
F684        F  0.09148549  0.45687790  0.99192097    -0.14300
F685        F  0.93352732  0.53383774  0.51094064    -0.14300
F686        F  0.92700968  0.50228648  0.90929583    -0.12000
C687        C  0.97669609  0.47836400  0.70029216     0.26000
C688        C  0.00166819  0.50450243  0.69867702    -0.22100
C689        C  0.01607660  0.51626958  0.76016215     0.20900
C690        C  0.01623066  0.50087472  0.81765478     0.26000
C691        C  0.99107268  0.47444082  0.82015073    -0.22000
C692        C  0.96737773  0.46502575  0.75905891     0.20900
F693        F  0.93050962  0.44427283  0.75354430    -0.12000
F694        F  0.95676011  0.46596813  0.64518452    -0.14300
F695        F  0.04403094  0.51196888  0.87002394    -0.14300
F696        F  0.03459422  0.54248489  0.76502649    -0.12000
loop_ 
_geom_bond_atom_site_label_1 
_geom_bond_atom_site_label_2 
_geom_bond_distance 
_geom_bond_site_symmetry_2 
_ccdc_geom_bond_type 
C1          C310   1.575   1_655  S
C1          C323   1.597       .  S
C1          C330   1.600   1_655  S
C1          C343   1.610       .  S
C2          C290   1.571       .  S
C2          C300   1.567   1_455  S
C2          C333   1.591       .  S
C2          C340   1.582       .  S
O3            C6   1.264       .  A
O3           Cd8   2.428       .  S
C4           O13   1.267       .  A
C4            O9   1.263       .  A
C4          C283   1.487       .  S
O5           C11   1.269       .  A
O5           Cd8   2.458       .  S
C6           O14   1.267       .  A
C6          C273   1.482       .  S
C7           O12   1.268       .  A
C7           O10   1.269       .  A
C7          C260   1.488       .  S
Cd8          O15   2.463       .  S
Cd8          O14   2.463       .  S
Cd8          O13   2.481       .  S
Cd8           O9   2.436       .  S
Cd8          O12   2.452       .  S
Cd8          O10   2.472       .  S
C11          O15   1.267       .  A
C11         C250   1.483       .  S
O16          C19   1.268       .  A
O16         Cd21   2.453       .  S
C17          O26   1.268       .  A
C17          O22   1.262       .  A
C17         C270   1.481       .  S
O18          C24   1.269       .  A
O18         Cd21   2.472       .  S
C19          O27   1.263       .  A
C19         C280   1.484       .  S
C20          O25   1.269       .  A
C20          O23   1.268       .  A
C20         C240   1.491       .  S
Cd21         O28   2.472       .  S
Cd21         O27   2.447       .  S
Cd21         O26   2.470       .  S
Cd21         O22   2.414       .  S
Cd21         O25   2.465       .  S
Cd21         O23   2.463       .  S
C24          O28   1.268       .  A
C24         C320   1.488       .  S
O29          C32   1.267       .  A
O29         Cd34   2.457       .  S
C30          O39   1.264       .  A
C30          O35   1.266       .  A
C30         C233   1.488   1_554  S
O31          C37   1.268       .  A
O31         Cd34   2.481       .  S
C32          O40   1.263       .  A
C32         C223   1.481       .  S
C33          O38   1.270       .  A
C33          O36   1.269       .  A
C33         C263   1.486       .  S
Cd34         O41   2.443       .  S
Cd34         O40   2.425       .  S
Cd34         O39   2.452       .  S
Cd34         O35   2.470       .  S
Cd34         O38   2.454       .  S
Cd34         O36   2.446       .  S
C37          O41   1.265       .  A
C37         C213   1.473       .  S
O42          C45   1.263       .  A
O42         Cd47   2.438       .  S
C43          O52   1.267       .  A
C43          O48   1.264       .  A
C43         C220   1.482       .  S
O44          C50   1.269       .  A
O44         Cd47   2.473       .  S
C45          O53   1.268       .  A
C45         C230   1.487       .  S
C46          O51   1.269       .  A
C46          O49   1.271       .  A
C46         C243   1.490       .  S
Cd47         O54   2.468       .  S
Cd47         O53   2.468       .  S
Cd47         O52   2.461       .  S
Cd47         O48   2.427       .  S
Cd47         O51   2.456       .  S
Cd47         O49   2.470       .  S
C50          O54   1.268       .  A
C50         C313   1.486       .  S
C55         C173   1.572       .  S
C55         C180   1.590       .  S
C55         C190   1.595       .  S
C55         C200   1.611       .  S
C56         C193   1.591       .  S
C56         C203   1.582       .  S
C56         C210   1.566       .  S
C56         C253   1.571       .  S
O57          C60   1.267       .  A
O57         Cd62   2.445       .  S
C58          O67   1.268       .  A
C58          O63   1.261       .  A
C58         C150   1.486   1_554  S
O59          C65   1.265       .  A
O59         Cd62   2.456       .  S
C60          O68   1.263       .  A
C60         C160   1.478       .  S
C61          O66   1.270       .  A
C61          O64   1.269       .  A
C61         C140   1.490       .  S
Cd62         O69   2.488       .  S
Cd62         O68   2.433       .  S
Cd62         O67   2.474       .  S
Cd62         O63   2.438       .  S
Cd62         O66   2.470       .  S
Cd62         O64   2.444       .  S
C65          O69   1.269       .  A
C65         C303   1.476       .  S
O70          C73   1.263       .  A
O70         Cd75   2.444       .  S
C71          O80   1.265       .  A
C71          O76   1.264       .  A
C71         C163   1.478       .  S
O72          C78   1.267       .  A
O72         Cd75   2.449       .  S
C73          O81   1.266       .  A
C73         C153   1.484       .  S
C74          O79   1.269       .  A
C74          O77   1.270       .  A
C74         C130   1.487       .  S
Cd75         O82   2.461       .  S
Cd75         O81   2.462       .  S
Cd75         O80   2.428       .  S
Cd75         O76   2.442       .  S
Cd75         O79   2.452       .  S
Cd75         O77   2.451       .  S
C78          O82   1.268       .  A
C78         C170   1.480       .  S
O83          C86   1.266       .  A
O83         Cd88   2.466       .  S
C84          O93   1.263       .  A
C84          O89   1.267       .  A
C84         C123   1.482       .  S
O85          C91   1.269       .  A
O85         Cd88   2.484       .  S
C86          O94   1.264       .  A
C86         C113   1.484       .  S
C87          O92   1.268       .  A
C87          O90   1.270       .  A
C87         C143   1.489       .  S
Cd88         O95   2.433       .  S
Cd88         O94   2.435       .  S
Cd88         O93   2.426       .  S
Cd88         O89   2.458       .  S
Cd88         O92   2.451       .  S
Cd88         O90   2.461       .  S
C91          O95   1.267       .  A
C91         C293   1.482       .  S
O96          C99   1.265       .  A
O96        Cd101   2.444       .  S
C97         O106   1.264       .  A
C97         O102   1.264       .  A
C97         C110   1.483       .  S
O98         C104   1.269       .  A
O98        Cd101   2.454       .  S
C99         O107   1.264       .  A
C99         C120   1.480       .  S
C100        O105   1.269       .  A
C100        O103   1.269       .  A
C100        C133   1.487       .  S
Cd101       O108   2.445       .  S
Cd101       O107   2.429       .  S
Cd101       O106   2.445       .  S
Cd101       O102   2.442       .  S
Cd101       O105   2.451       .  S
Cd101       O103   2.451       .  S
C104        O108   1.268       .  A
C104        C183   1.481       .  S
C109        C110   1.410       .  A
C109        C114   1.397       .  A
C109        F116   1.358       .  S
C110        C111   1.409       .  A
C111        C460   1.398       .  A
C111        F466   1.358       .  S
C112        C113   1.409       .  A
C112        C459   1.399       .  A
C112        F117   1.358       .  S
C113        C462   1.409       .  A
C114        C461   1.407       .  A
C114        F115   1.358       .  S
F118        C459   1.358   1_556  S
C119        C120   1.407       .  A
C119        C124   1.398       .  A
C119        F126   1.358       .  S
C120        C121   1.409       .  A
C121        C122   1.396       .  A
C121        F128   1.358       .  S
C122        C123   1.408       .  A
C122        F127   1.358       .  S
C123        C124   1.411       .  A
C124        F125   1.358       .  S
C129        C130   1.408       .  A
C129        C134   1.400   1_655  A
C129        F136   1.358       .  S
C130        C131   1.410       .  A
C131        C132   1.400   1_655  A
C131        F138   1.358       .  S
C132        C133   1.410       .  A
C132        F137   1.358       .  S
C133        C134   1.409       .  A
C134        F135   1.358       .  S
C139        C140   1.410       .  A
C139        C144   1.401       .  A
C139        F146   1.358       .  S
C140        C141   1.409       .  A
C141        C142   1.400       .  A
C141        F148   1.358       .  S
C142        C143   1.409       .  A
C142        F147   1.358       .  S
C143        C144   1.410       .  A
C144        F145   1.358       .  S
C149        C150   1.406       .  A
C149        C502   1.398       .  A
C149        F156   1.358       .  S
C150        C151   1.414   1_556  A
C151        C152   1.400   1_554  A
C151        F158   1.358       .  S
C152        C501   1.405       .  A
C152        F157   1.358   1_556  S
C153        C154   1.410       .  A
C153        C500   1.407       .  A
C154        C497   1.398       .  A
C154        F155   1.358       .  S
C159        C160   1.408       .  A
C159        C164   1.399       .  A
C159        F166   1.358       .  S
C160        C161   1.407       .  A
C161        C162   1.394       .  A
C161        F168   1.358       .  S
C162        C163   1.409       .  A
C162        F167   1.358       .  S
C163        C164   1.408       .  A
C164        F165   1.358       .  S
C169        C170   1.401       .  A
C169        C174   1.396       .  A
C169        F176   1.358       .  S
C170        C171   1.401       .  A
C171        C172   1.401       .  A
C171        F178   1.358       .  S
C172        C173   1.427       .  A
C172        F177   1.353       .  S
C173        C174   1.427       .  A
C174        F175   1.358       .  S
C179        C180   1.428       .  A
C179        C184   1.398       .  A
C179        F186   1.360       .  S
C180        C181   1.435       .  A
C181        C182   1.399       .  A
C181        F188   1.352       .  S
C182        C183   1.398       .  A
C182        F187   1.359       .  S
C183        C184   1.400       .  A
C184        F185   1.358       .  S
C189        C190   1.428       .  A
C189        C542   1.404       .  A
C189        F196   1.354       .  S
C190        C191   1.419       .  A
C191        C540   1.412   1_565  A
C191        F198   1.358       .  S
C192        C193   1.432       .  A
C192        C539   1.414   1_544  A
C192        F197   1.354   1_554  S
C193        C194   1.413   1_545  A
C194        C537   1.406   1_554  A
C194        F195   1.355       .  S
C199        C200   1.438       .  A
C199        C204   1.412       .  A
C199        F206   1.345       .  S
C200        C201   1.425   1_565  A
C201        C202   1.407       .  A
C201        F208   1.356       .  S
C202        C203   1.423       .  A
C202        F207   1.355       .  S
C203        C204   1.408   1_545  A
C204        F205   1.357       .  S
C209        C210   1.425       .  A
C209        C214   1.396       .  A
C209        F216   1.355       .  S
C210        C211   1.424       .  A
C211        C212   1.402       .  A
C211        F218   1.356       .  S
C212        C213   1.399       .  A
C212        F217   1.358       .  S
C213        C214   1.398       .  A
C214        F215   1.358       .  S
C219        C220   1.409       .  A
C219        C224   1.396       .  A
C219        F226   1.358       .  S
C220        C221   1.410       .  A
C221        C222   1.399       .  A
C221        F228   1.358       .  S
C222        C223   1.408       .  A
C222        F227   1.358       .  S
C223        C224   1.409       .  A
C224        F225   1.358       .  S
C229        C230   1.408       .  A
C229        C582   1.399       .  A
C229        F236   1.358       .  S
C230        C231   1.412       .  A
C231        C580   1.400       .  A
C231        F238   1.358       .  S
C232        C233   1.411       .  A
C232        C579   1.401       .  A
C232        F237   1.358       .  S
C233        C234   1.410       .  A
C234        C577   1.400       .  A
C234        F235   1.358       .  S
C239        C240   1.410       .  A
C239        C244   1.401       .  A
C239        F246   1.358       .  S
C240        C241   1.410       .  A
C241        C242   1.402       .  A
C241        F248   1.358       .  S
C242        C243   1.409       .  A
C242        F247   1.358       .  S
C243        C244   1.410       .  A
C244        F245   1.358       .  S
C249        C250   1.405       .  A
C249        C254   1.401       .  A
C249        F256   1.358       .  S
C250        C251   1.401       .  A
C251        C252   1.398       .  A
C251        F258   1.358       .  S
C252        C253   1.425       .  A
C252        F257   1.356       .  S
C253        C254   1.421       .  A
C254        F255   1.357       .  S
C259        C260   1.409       .  A
C259        C264   1.400   1_655  A
C259        F266   1.358       .  S
C260        C261   1.409       .  A
C261        C262   1.399   1_655  A
C261        F268   1.358       .  S
C262        C263   1.408       .  A
C262        F267   1.358       .  S
C263        C264   1.409       .  A
C264        F265   1.358       .  S
C269        C270   1.413       .  A
C269        C274   1.397       .  A
C269        F276   1.358       .  S
C270        C271   1.406       .  A
C271        C620   1.398       .  A
C271        F626   1.358       .  S
C272        C273   1.411       .  A
C272        C619   1.398       .  A
C272        F277   1.358       .  S
C273        C622   1.406       .  A
C274        C621   1.403       .  A
C274        F275   1.358       .  S
F278        C619   1.358       .  S
C279        C280   1.407       .  A
C279        C284   1.397       .  A
C279        F286   1.358       .  S
C280        C281   1.410       .  A
C281        C282   1.402       .  A
C281        F288   1.358       .  S
C282        C283   1.410       .  A
C282        F287   1.358       .  S
C283        C284   1.410       .  A
C284        F285   1.358       .  S
C289        C290   1.427       .  A
C289        C294   1.403       .  A
C289        F296   1.356       .  S
C290        C291   1.419       .  A
C291        C292   1.396       .  A
C291        F298   1.355       .  S
C292        C293   1.403       .  A
C292        F297   1.358       .  S
C293        C294   1.402       .  A
C294        F295   1.358       .  S
C299        C300   1.425       .  A
C299        C304   1.399       .  A
C299        F306   1.356   1_655  S
C300        C301   1.423       .  A
C301        C302   1.401       .  A
C301        F308   1.355       .  S
C302        C303   1.398       .  A
C302        F307   1.358       .  S
C303        C304   1.400       .  A
C304        F305   1.358       .  S
C309        C310   1.427       .  A
C309        C314   1.401       .  A
C309        F316   1.353       .  S
C310        C311   1.426       .  A
C311        C312   1.399       .  A
C311        F318   1.359       .  S
C312        C313   1.403       .  A
C312        F317   1.358       .  S
C313        C314   1.402       .  A
C314        F315   1.358       .  S
C319        C320   1.398       .  A
C319        C324   1.403       .  A
C319        F326   1.358       .  S
C320        C321   1.400       .  A
C321        C322   1.401       .  A
C321        F328   1.358       .  S
C322        C323   1.432       .  A
C322        F327   1.360       .  S
C323        C324   1.434       .  A
C324        F325   1.350       .  S
C329        C330   1.431       .  A
C329        C682   1.408       .  A
C329        F336   1.353       .  S
C330        C331   1.419   1_455  A
C331        C680   1.412       .  A
C331        F338   1.358       .  S
C332        C333   1.432   1_655  A
C332        C679   1.412   1_554  A
C332        F337   1.354       .  S
C333        C334   1.412       .  A
C334        C677   1.408   1_554  A
C334        F335   1.356       .  S
C339        C340   1.409   1_655  A
C339        C344   1.411       .  A
C339        F346   1.357       .  S
C340        C341   1.424       .  A
C341        C342   1.410       .  A
C341        F348   1.356       .  S
C342        C343   1.426   1_455  A
C342        F347   1.356       .  S
C343        C344   1.436       .  A
C344        F345   1.346       .  S
C349        C658   1.576   1_655  S
C349        C671   1.598       .  S
C349        C678   1.601   1_655  S
C349        C691   1.610       .  S
C350        C638   1.572       .  S
C350        C648   1.567   1_455  S
C350        C681   1.591       .  S
C350        C688   1.584       .  S
O351        C354   1.263       .  A
O351       Cd356   2.427       .  S
C352        O361   1.266       .  A
C352        O357   1.265       .  A
C352        C631   1.488       .  S
O353        C359   1.269       .  A
O353       Cd356   2.465       .  S
C354        O362   1.266       .  A
C354        C621   1.477       .  S
C355        O360   1.268       .  A
C355        O358   1.270       .  A
C355        C608   1.488       .  S
Cd356       O363   2.462       .  S
Cd356       O362   2.460       .  S
Cd356       O361   2.474       .  S
Cd356       O357   2.459       .  S
Cd356       O360   2.446       .  S
Cd356       O358   2.474       .  S
C359        O363   1.266       .  A
C359        C598   1.484       .  S
O364        C367   1.265       .  A
O364       Cd369   2.453       .  S
C365        O374   1.265       .  A
C365        O370   1.264       .  A
C365        C618   1.481   1_556  S
O366        C372   1.270       .  A
O366       Cd369   2.469       .  S
C367        O375   1.265       .  A
C367        C628   1.488       .  S
C368        O373   1.270       .  A
C368        O371   1.269       .  A
C368        C588   1.492       .  S
Cd369       O376   2.472       .  S
Cd369       O375   2.464       .  S
Cd369       O374   2.451       .  S
Cd369       O370   2.435       .  S
Cd369       O373   2.473       .  S
Cd369       O371   2.459       .  S
C372        O376   1.269       .  A
C372        C668   1.488       .  S
O377        C380   1.262       .  A
O377       Cd382   2.429       .  S
C378        O387   1.266       .  A
C378        O383   1.264       .  A
C378        C581   1.486       .  S
O379        C385   1.268       .  A
O379       Cd382   2.477       .  S
C380        O388   1.268       .  A
C380        C571   1.483       .  S
C381        O386   1.268       .  A
C381        O384   1.268       .  A
C381        C611   1.487       .  S
Cd382       O389   2.450       .  S
Cd382       O388   2.466       .  S
Cd382       O387   2.463       .  S
Cd382       O383   2.443       .  S
Cd382       O386   2.458       .  S
Cd382       O384   2.452       .  S
C385        O389   1.265       .  A
C385        C561   1.476       .  S
O390        C393   1.264       .  A
O390       Cd395   2.445       .  S
C391        O400   1.269       .  A
C391        O396   1.262       .  A
C391        C568   1.482       .  S
O392        C398   1.270       .  A
O392       Cd395   2.477       .  S
C393        O401   1.269       .  A
C393        C578   1.485       .  S
C394        O399   1.269       .  A
C394        O397   1.270       .  A
C394        C591   1.492       .  S
Cd395       O402   2.464       .  S
Cd395       O401   2.465       .  S
Cd395       O400   2.483       .  S
Cd395       O396   2.410       .  S
Cd395       O399   2.465       .  S
Cd395       O397   2.474       .  S
C398        O402   1.268       .  A
C398        C661   1.486       .  S
C403        C521   1.572       .  S
C403        C528   1.590       .  S
C403        C538   1.597       .  S
C403        C548   1.610       .  S
C404        C541   1.589       .  S
C404        C551   1.581       .  S
C404        C558   1.565       .  S
C404        C601   1.570       .  S
O405        C408   1.265       .  A
O405       Cd410   2.443       .  S
C406        O415   1.266       .  A
C406        O411   1.262       .  A
C406        C498   1.486       .  S
O407        C413   1.265       .  A
O407       Cd410   2.448       .  S
C408        O416   1.264       .  A
C408        C508   1.481       .  S
C409        O414   1.270       .  A
C409        O412   1.269       .  A
C409        C488   1.490       .  S
Cd410       O417   2.485       .  S
Cd410       O416   2.444       .  S
Cd410       O415   2.459       .  S
Cd410       O411   2.451       .  S
Cd410       O414   2.469       .  S
Cd410       O412   2.449       .  S
C413        O417   1.269       .  A
C413        C651   1.475       .  S
O418        C421   1.262       .  A
O418       Cd423   2.431       .  S
C419        O428   1.264       .  A
C419        O424   1.265       .  A
C419        C511   1.481       .  S
O420        C426   1.267       .  A
O420       Cd423   2.454       .  S
C421        O429   1.268       .  A
C421        C501   1.483       .  S
C422        O427   1.269       .  A
C422        O425   1.269       .  A
C422        C478   1.486       .  S
Cd423       O430   2.462       .  S
Cd423       O429   2.472       .  S
Cd423       O428   2.432       .  S
Cd423       O424   2.441       .  S
Cd423       O427   2.448       .  S
Cd423       O425   2.446       .  S
C426        O430   1.267       .  A
C426        C518   1.482       .  S
O431        C434   1.267       .  A
O431       Cd436   2.458       .  S
C432        O441   1.262       .  A
C432        O437   1.268       .  A
C432        C471   1.482       .  S
O433        C439   1.270       .  A
O433       Cd436   2.482       .  S
C434        O442   1.264       .  A
C434        C461   1.480       .  S
C435        O440   1.269       .  A
C435        O438   1.269       .  A
C435        C491   1.488       .  S
Cd436       O443   2.443       .  S
Cd436       O442   2.437       .  S
Cd436       O441   2.420       .  S
Cd436       O437   2.465       .  S
Cd436       O440   2.451       .  S
Cd436       O438   2.459       .  S
C439        O443   1.267       .  A
C439        C641   1.482       .  S
O444        C447   1.268       .  A
O444       Cd449   2.458       .  S
C445        O454   1.263       .  A
C445        O450   1.268       .  A
C445        C458   1.482   1_556  S
O446        C452   1.269       .  A
O446       Cd449   2.447       .  S
C447        O455   1.263       .  A
C447        C468   1.480       .  S
C448        O453   1.269       .  A
C448        O451   1.268       .  A
C448        C481   1.486       .  S
Cd449       O456   2.457       .  S
Cd449       O455   2.408       .  S
Cd449       O454   2.432       .  S
Cd449       O450   2.460       .  S
Cd449       O453   2.448       .  S
Cd449       O451   2.451       .  S
C452        O456   1.267       .  A
C452        C531   1.480       .  S
C457        C458   1.407       .  A
C457        C462   1.397       .  A
C457        F464   1.358       .  S
C458        C459   1.410       .  A
C460        C461   1.408       .  A
C460        F465   1.358       .  S
C462        F463   1.358       .  S
C467        C468   1.405       .  A
C467        C472   1.397       .  A
C467        F474   1.358       .  S
C468        C469   1.411       .  A
C469        C470   1.397       .  A
C469        F476   1.358       .  S
C470        C471   1.407       .  A
C470        F475   1.358       .  S
C471        C472   1.412       .  A
C472        F473   1.358       .  S
C477        C478   1.409       .  A
C477        C482   1.399   1_655  A
C477        F484   1.358       .  S
C478        C479   1.409       .  A
C479        C480   1.399   1_655  A
C479        F486   1.358       .  S
C480        C481   1.409       .  A
C480        F485   1.358       .  S
C481        C482   1.410       .  A
C482        F483   1.358       .  S
C487        C488   1.410       .  A
C487        C492   1.401       .  A
C487        F494   1.358       .  S
C488        C489   1.410       .  A
C489        C490   1.400       .  A
C489        F496   1.358       .  S
C490        C491   1.409       .  A
C490        F495   1.358       .  S
C491        C492   1.409       .  A
C492        F493   1.358       .  S
C497        C498   1.408       .  A
C497        F504   1.358       .  S
C498        C499   1.412       .  A
C499        C500   1.400       .  A
C499        F506   1.358       .  S
C500        F505   1.358       .  S
C501        C502   1.412       .  A
C502        F503   1.358       .  S
C507        C508   1.409       .  A
C507        C512   1.397       .  A
C507        F514   1.358       .  S
C508        C509   1.408       .  A
C509        C510   1.396       .  A
C509        F516   1.358       .  S
C510        C511   1.409       .  A
C510        F515   1.358       .  S
C511        C512   1.409       .  A
C512        F513   1.358       .  S
C517        C518   1.401       .  A
C517        C522   1.396       .  A
C517        F524   1.358       .  S
C518        C519   1.401       .  A
C519        C520   1.401       .  A
C519        F526   1.358       .  S
C520        C521   1.427       .  A
C520        F525   1.353       .  S
C521        C522   1.427       .  A
C522        F523   1.358       .  S
C527        C528   1.429       .  A
C527        C532   1.400       .  A
C527        F534   1.360       .  S
C528        C529   1.433       .  A
C529        C530   1.397       .  A
C529        F536   1.351       .  S
C530        C531   1.397       .  A
C530        F535   1.358       .  S
C531        C532   1.400       .  A
C532        F533   1.358       .  S
C537        C538   1.428       .  A
C537        F544   1.354       .  S
C538        C539   1.419       .  A
C539        F546   1.358   1_565  S
C540        C541   1.432       .  A
C540        F545   1.354       .  S
C541        C542   1.413   1_545  A
C542        F543   1.355       .  S
C547        C548   1.439       .  A
C547        C552   1.411       .  A
C547        F554   1.345       .  S
C548        C549   1.424   1_565  A
C549        C550   1.408       .  A
C549        F556   1.356       .  S
C550        C551   1.423       .  A
C550        F555   1.355       .  S
C551        C552   1.407   1_545  A
C552        F553   1.357       .  S
C557        C558   1.425       .  A
C557        C562   1.398       .  A
C557        F564   1.355       .  S
C558        C559   1.423       .  A
C559        C560   1.400       .  A
C559        F566   1.356       .  S
C560        C561   1.399       .  A
C560        F565   1.358       .  S
C561        C562   1.400       .  A
C562        F563   1.358       .  S
C567        C568   1.412       .  A
C567        C572   1.396       .  A
C567        F574   1.358       .  S
C568        C569   1.405       .  A
C569        C570   1.400       .  A
C569        F576   1.358       .  S
C570        C571   1.413       .  A
C570        F575   1.358       .  S
C571        C572   1.405       .  A
C572        F573   1.358       .  S
C577        C578   1.408       .  A
C577        F584   1.358       .  S
C578        C579   1.408       .  A
C579        F586   1.358       .  S
C580        C581   1.408       .  A
C580        F585   1.358       .  S
C581        C582   1.411       .  A
C582        F583   1.358       .  S
C587        C588   1.410       .  A
C587        C592   1.402       .  A
C587        F594   1.358       .  S
C588        C589   1.410       .  A
C589        C590   1.402       .  A
C589        F596   1.358       .  S
C590        C591   1.409       .  A
C590        F595   1.358       .  S
C591        C592   1.411       .  A
C592        F593   1.358       .  S
C597        C598   1.405       .  A
C597        C602   1.401       .  A
C597        F604   1.358       .  S
C598        C599   1.401       .  A
C599        C600   1.398       .  A
C599        F606   1.358       .  S
C600        C601   1.425       .  A
C600        F605   1.356       .  S
C601        C602   1.420       .  A
C602        F603   1.357       .  S
C607        C608   1.409       .  A
C607        C612   1.401   1_655  A
C607        F614   1.358       .  S
C608        C609   1.410       .  A
C609        C610   1.399   1_655  A
C609        F616   1.358       .  S
C610        C611   1.409       .  A
C610        F615   1.358       .  S
C611        C612   1.409       .  A
C612        F613   1.358       .  S
C617        C618   1.411       .  A
C617        C622   1.398       .  A
C617        F624   1.358   1_554  S
C618        C619   1.406       .  A
C620        C621   1.410       .  A
C620        F625   1.358       .  S
C622        F623   1.358       .  S
C627        C628   1.410       .  A
C627        C632   1.399       .  A
C627        F634   1.358       .  S
C628        C629   1.409       .  A
C629        C630   1.401       .  A
C629        F636   1.358       .  S
C630        C631   1.411       .  A
C630        F635   1.358       .  S
C631        C632   1.408       .  A
C632        F633   1.358       .  S
C637        C638   1.426       .  A
C637        C642   1.402       .  A
C637        F644   1.356       .  S
C638        C639   1.420       .  A
C639        C640   1.398       .  A
C639        F646   1.355       .  S
C640        C641   1.403       .  A
C640        F645   1.358       .  S
C641        C642   1.402       .  A
C642        F643   1.358       .  S
C647        C648   1.425       .  A
C647        C652   1.398       .  A
C647        F654   1.356   1_655  S
C648        C649   1.423       .  A
C649        C650   1.401       .  A
C649        F656   1.355       .  S
C650        C651   1.398       .  A
C650        F655   1.358       .  S
C651        C652   1.400       .  A
C652        F653   1.358       .  S
C657        C658   1.428       .  A
C657        C662   1.402       .  A
C657        F664   1.353       .  S
C658        C659   1.426       .  A
C659        C660   1.399       .  A
C659        F666   1.359       .  S
C660        C661   1.402       .  A
C660        F665   1.358       .  S
C661        C662   1.401       .  A
C662        F663   1.358       .  S
C667        C668   1.398       .  A
C667        C672   1.402       .  A
C667        F674   1.359       .  S
C668        C669   1.400       .  A
C669        C670   1.402       .  A
C669        F676   1.358       .  S
C670        C671   1.432       .  A
C670        F675   1.360       .  S
C671        C672   1.435       .  A
C672        F673   1.350       .  S
C677        C678   1.431       .  A
C677        F684   1.353       .  S
C678        C679   1.419   1_455  A
C679        F686   1.358       .  S
C680        C681   1.432   1_655  A
C680        F685   1.354       .  S
C681        C682   1.412       .  A
C682        F683   1.356       .  S
C687        C688   1.410   1_655  A
C687        C692   1.411       .  A
C687        F694   1.357       .  S
C688        C689   1.424       .  A
C689        C690   1.410       .  A
C689        F696   1.355       .  S
C690        C691   1.426   1_455  A
C690        F695   1.356       .  S
C691        C692   1.436       .  A
C692        F693   1.346       .  S
