geometry optimzed in LAMMPS
_audit_creation_date              2020-11-30 
_audit_creation_method            'lammps2cif' 
_symmetry_space_group_name_H-M    'P1' 
_symmetry_Int_Tables_number       1 
_symmetry_cell_setting            triclinic 
loop_ 
_symmetry_equiv_pos_as_xyz 
  x,y,z 
_cell_length_a                    29.61277984 
_cell_length_b                    29.756830528071383 
_cell_length_c                    29.966588823007196 
_cell_angle_alpha                 90.18301259436396 
_cell_angle_beta                  90.0175977149268 
_cell_angle_gamma                 89.97869043845367 
loop_ 
_atom_site_label 
_atom_site_type_symbol 
_atom_site_fract_x 
_atom_site_fract_y 
_atom_site_fract_z 
_atom_site_charge 
O1          O  0.45412097  0.41869787  0.54600939    -0.78400
C2          C  0.55244818  0.40898072  0.43493833     0.82700
O3          O  0.58273111  0.50367668  0.59394750    -0.79500
O4          O  0.58402898  0.55325885  0.44094021    -0.81000
O5          O  0.42132119  0.54243317  0.44576187    -0.80800
O6          O  0.40502329  0.47384858  0.53424417    -0.79400
Zn7        Zn  0.51448981  0.44120598  0.52453557     1.55700
O8          O  0.48098904  0.53542545  0.40143651    -0.80800
Cd9        Cd  0.44533377  0.52366702  0.50795636     1.59700
Cd10       Cd  0.54689377  0.54366190  0.54779350     1.59600
O11         O  0.43787418  0.57846223  0.54947562    -0.80800
O12         O  0.50978031  0.50401185  0.50670732    -1.91300
Cd13       Cd  0.53032962  0.50972722  0.44367561     1.59900
O14         O  0.50473903  0.58914472  0.58216816    -0.80700
O15         O  0.55102229  0.44852000  0.41876877    -0.79400
C16         C  0.58151978  0.46121882  0.60049445     0.83100
C17         C  0.41430772  0.43483025  0.54889552     0.82800
O18         O  0.53865894  0.40098927  0.47446084    -0.78300
C19         C  0.43994869  0.54662066  0.40763633     0.83600
O20         O  0.55711091  0.43533713  0.57665633    -0.78400
C21         C  0.46306325  0.59930404  0.57705339     0.83700
C22         C  0.60350114  0.57957676  0.46847419     0.84100
O23         O  0.59295223  0.58107916  0.50982128    -0.80900
O24         O  0.05851294  0.41786267  0.46292711    -0.78400
C25         C  0.96211530  0.40469751  0.56870340     0.82700
O26         O  0.92845648  0.51100425  0.42130519    -0.79500
O27         O  0.93218091  0.54682784  0.57784894    -0.81000
O28         O  0.09422166  0.54094529  0.56281173    -0.80800
O29         O  0.11005329  0.47010218  0.47684662    -0.79400
Zn30       Zn  0.99868882  0.44291474  0.48196963     1.55700
O31         O  0.03705170  0.52825511  0.60924124    -0.80800
Cd32       Cd  0.06961344  0.52123121  0.50141276     1.59700
Cd33       Cd  0.96595824  0.54668583  0.46920908     1.59600
O34         O  0.07619686  0.57523965  0.45952048    -0.80800
O35         O  0.00469068  0.50354565  0.50454793    -1.91300
Cd36       Cd  0.98629301  0.50433352  0.56842036     1.59900
O37         O  0.00706118  0.59300718  0.43539707    -0.80700
O38         O  0.96760982  0.44152782  0.58969615    -0.79400
C39         C  0.93173264  0.46989386  0.40927474     0.83100
C40         C  0.09932176  0.43114623  0.46270413     0.82800
O41         O  0.97195044  0.40075104  0.52753341    -0.78300
C42         C  0.07689465  0.54229435  0.60168658     0.83600
O43         O  0.95783584  0.44243084  0.42902848    -0.78400
C44         C  0.04975800  0.59934927  0.43609477     0.83700
C45         C  0.91227283  0.57590012  0.55374272     0.84100
O46         O  0.92200504  0.58141576  0.51250805    -0.80900
O47         O  0.45007506  0.59921161  0.97939874    -0.78400
C48         C  0.54999363  0.60256770  0.08669318     0.82700
O49         O  0.57675792  0.51744650  0.92091469    -0.79500
O50         O  0.58228011  0.46255179  0.07544950    -0.81000
O51         O  0.41906053  0.46919985  0.06968556    -0.80800
O52         O  0.40194127  0.54254540  0.98625823    -0.79400
Zn53       Zn  0.51097357  0.57483513  0.99660122     1.55700
O54         O  0.47853720  0.47310635  0.11468616    -0.80800
Cd55       Cd  0.44322863  0.49206871  0.00921434     1.59700
Cd56       Cd  0.54580005  0.47474143  0.96862750     1.59600
O57         O  0.43715853  0.43957027  0.96547538    -0.80800
O58         O  0.50742188  0.51157410  0.01143698    -1.91300
Cd59       Cd  0.52688223  0.50327341  0.07452958     1.59900
O60         O  0.50491535  0.42687193  0.93560507    -0.80700
O61         O  0.54640450  0.56324072  0.10281930    -0.79400
C62         C  0.57388051  0.56014751  0.91624240     0.83100
C63         C  0.41049774  0.58301949  0.97553944     0.82800
O64         O  0.53777135  0.61146732  0.04691360    -0.78300
C65         C  0.43763808  0.46217575  0.10735655     0.83600
O66         O  0.55058338  0.58384812  0.94310274    -0.78400
C67         C  0.46281226  0.41774771  0.93908067     0.83700
C68         C  0.60513551  0.44037329  0.04700206     0.84100
O69         O  0.59581686  0.44043545  0.00528206    -0.80900
O70         O  0.47959962  0.04556969  0.60688002    -0.78400
C71         C  0.55493669  0.91895897  0.57931346     0.82700
O72         O  0.59661070  0.08222086  0.50016939    -0.79500
O73         O  0.55459513  0.94014222  0.43357025    -0.81000
O74         O  0.40526351  0.97630717  0.47651701    -0.80800
O75         O  0.41942057  0.04889612  0.56291218    -0.79400
Zn76       Zn  0.52791957  0.01758123  0.56733027     1.55700
O77         O  0.45340676  0.91910383  0.47101071    -0.80800
Cd78       Cd  0.44419740  0.02803492  0.50206226     1.59700
Cd79       Cd  0.54603910  0.04910843  0.46430289     1.59600
O80         O  0.43687393  0.08190825  0.45989263    -0.80800
O81         O  0.50886122  0.01062116  0.50606506    -1.91300
Cd82       Cd  0.51477511  0.94593963  0.48934374     1.59900
O83         O  0.50532611  0.09655374  0.43231840    -0.80700
O84         O  0.54386152  0.90772766  0.53970534    -0.79400
C85         C  0.60549006  0.08029324  0.54179386     0.83100
C86         C  0.43831951  0.05584990  0.60051148     0.82800
O87         O  0.54891656  0.95894212  0.59326120    -0.78300
C88         C  0.41418251  0.93585341  0.46563041     0.83600
O89         O  0.58176307  0.05727634  0.56870335    -0.78400
C90         C  0.46307626  0.10470752  0.43506622     0.83700
C91         C  0.57631957  0.96699027  0.40849117     0.84100
O92         O  0.57684532  0.00935262  0.41538513    -0.80900
O93         O  0.05147656  0.59175978  0.05448945    -0.78400
C94         C  0.95547552  0.60057170  0.94596387     0.82700
O95         O  0.92188035  0.50062999  0.09875966    -0.79500
O96         O  0.92639239  0.45822433  0.94162040    -0.81000
O97         O  0.08877672  0.46688131  0.95866165    -0.80800
O98         O  0.10178943  0.53717259  0.04632775    -0.79400
Zn99       Zn  0.99199449  0.56608628  0.03431000     1.55700
O100        O  0.03178541  0.47532293  0.91105219    -0.80800
Cd101      Cd  0.06194560  0.48696701  0.01910883     1.59700
Cd102      Cd  0.95752038  0.46325026  0.05072792     1.59600
O103        O  0.06639716  0.43232979  0.05978413    -0.80800
O104        O  0.99730476  0.50460624  0.01416056    -1.91300
Cd105      Cd  0.98016076  0.50114244  0.94997322     1.59900
O106        O  0.99707755  0.41468454  0.08308592    -0.80700
O107        O  0.96095286  0.56303356  0.92617869    -0.79400
C108        C  0.92518900  0.54235812  0.10842326     0.83100
C109        C  0.09161617  0.57701550  0.05827811     0.82800
O110        O  0.96575937  0.60603159  0.98685547    -0.78300
C111        C  0.07199212  0.46290742  0.91971274     0.83600
O112        O  0.95085871  0.56868532  0.08674030    -0.78400
C113        C  0.03958369  0.40737810  0.08168545     0.83700
C114        C  0.90476024  0.43159805  0.96696441     0.84100
O115        O  0.91230380  0.42905383  0.00887053    -0.80900
O116        O  0.04622141  0.03681157  0.40954682    -0.78400
C117        C  0.96762003  0.91641483  0.43896480     0.82700
O118        O  0.91990822  0.08347294  0.50296088    -0.79500
O119        O  0.96296303  0.94461453  0.58081978    -0.81000
O120        O  0.11240876  0.98151145  0.55006311    -0.80800
O121        O  0.10299230  0.04580081  0.45721360    -0.79400
Zn122      Zn  0.99369637  0.01518473  0.44612263     1.55700
O123        O  0.06627173  0.92268146  0.55034886    -0.80800
Cd124      Cd  0.07376363  0.03018359  0.51760693     1.59700
Cd125      Cd  0.96743060  0.05186421  0.54506625     1.59600
O126        O  0.07588724  0.08715720  0.55614229    -0.80800
O127        O  0.00950206  0.01225156  0.50876712    -1.91300
Cd128      Cd  0.00581168  0.94855283  0.52786503     1.59900
O129        O  0.00523595  0.10145087  0.57840725    -0.80700
O130        O  0.98003256  0.90769231  0.47860575    -0.79400
C131        C  0.91521657  0.08106882  0.46056911     0.83100
C132        C  0.08700203  0.04771833  0.41783108     0.82800
O133        O  0.97245807  0.95553135  0.42255097    -0.78300
C134        C  0.10418438  0.94059662  0.55957106     0.83600
O135        O  0.94160466  0.05732871  0.43666939    -0.78400
C136        C  0.04743908  0.11057042  0.57797575     0.83700
C137        C  0.93719977  0.97100902  0.60251518     0.84100
O138        O  0.93369384  0.01274299  0.59300255    -0.80900
O139        O  0.47290390  0.97427721  0.90222207    -0.78400
C140        C  0.54605849  0.10232173  0.93092371     0.82700
O141        O  0.59173107  0.93883478  0.00636230    -0.79500
O142        O  0.54759315  0.08117271  0.07464282    -0.81000
O143        O  0.39763042  0.03709004  0.03408976    -0.80800
O144        O  0.41413953  0.96615280  0.94756179    -0.79400
Zn145      Zn  0.52098218  0.00312525  0.94124575     1.55700
O146        O  0.44272158  0.09679934  0.03950312    -0.80800
Cd147      Cd  0.43878184  0.98742637  0.00817484     1.59700
Cd148      Cd  0.54179168  0.97105090  0.04407593     1.59600
O149        O  0.43418761  0.93260229  0.04983865    -0.80800
O150        O  0.50244106  0.00831886  0.00314741    -1.91300
Cd151      Cd  0.50543432  0.07315111  0.02045860     1.59900
O152        O  0.50319397  0.92221025  0.07783952    -0.80700
O153        O  0.53279766  0.11255675  0.97009773    -0.79400
C154        C  0.59994513  0.94126420  0.96460879     0.83100
C155        C  0.43258680  0.96124297  0.90948066     0.82800
O156        O  0.54137176  0.06253666  0.91569826    -0.78300
C157        C  0.40443357  0.07796476  0.04487031     0.83600
O158        O  0.57521848  0.96394133  0.93832092    -0.78400
C159        C  0.46142105  0.91150960  0.07515719     0.83700
C160        C  0.57298593  0.05528520  0.09730211     0.84100
O161        O  0.57478037  0.01294388  0.09012048    -0.80900
O162        O  0.05117425  0.98186779  0.11347821    -0.78400
C163        C  0.97299397  0.10327632  0.07897040     0.82700
O164        O  0.92637941  0.93591965  0.01625207    -0.79500
O165        O  0.97104022  0.07389794  0.93681526    -0.81000
O166        O  0.12058666  0.03461667  0.97531068    -0.79200
O167        O  0.10750817  0.97026487  0.06590681    -0.79400
Zn168      Zn  0.99909598  0.00401923  0.07503122     1.55700
O169        O  0.07462597  0.09338597  0.97091711    -0.80800
Cd170      Cd  0.07970767  0.98675210  0.00525619     1.59700
Cd171      Cd  0.97401037  0.96728294  0.97478282     1.59600
O172        O  0.08186771  0.93013501  0.96633184    -0.80800
O173        O  0.01564209  0.00617649  0.01219531    -1.91300
Cd174      Cd  0.01273934  0.06930319  0.99117077     1.59900
O175        O  0.01159086  0.91690419  0.94263689    -0.80700
O176        O  0.98587704  0.11088510  0.03922413    -0.79400
C177        C  0.92108342  0.93749254  0.05857331     0.83100
C178        C  0.09164848  0.96952947  0.10532633     0.82800
O179        O  0.97770564  0.06476574  0.09691397    -0.78300
C180        C  0.11311763  0.07530790  0.96461541     0.83600
O181        O  0.94651680  0.96161394  0.08328016    -0.78400
C182        C  0.05357163  0.90696076  0.94408870     0.83700
C183        C  0.94501115  0.04756403  0.91540410     0.84100
O184        O  0.94068565  0.00616634  0.92603330    -0.80900
O185        O  0.78657403  0.65442711  0.23545092    -0.78400
C186        C  0.71504802  0.69079301  0.35957550     0.82700
O187        O  0.67553419  0.75654876  0.18591901    -0.79500
O188        O  0.70907339  0.83439238  0.32709116    -0.81000
O189        O  0.86204101  0.78887722  0.29257227    -0.80800
O190        O  0.84593706  0.69875909  0.22519514    -0.79400
Zn191      Zn  0.73831971  0.69599580  0.26020406     1.55700
O192        O  0.81385342  0.80226333  0.34822387    -0.80800
Cd193      Cd  0.82213142  0.76120668  0.24320947     1.59700
Cd194      Cd  0.72076250  0.79713868  0.22088484     1.59600
O195        O  0.83017542  0.80264315  0.18885732    -0.80800
O196        O  0.75773436  0.75821443  0.26208703    -1.91300
Cd197      Cd  0.75220507  0.78016821  0.32492511     1.59900
O198        O  0.76218947  0.83234762  0.17604608    -0.80700
O199        O  0.72615768  0.73141326  0.36765833    -0.79400
C200        C  0.66517033  0.71527919  0.19135066     0.83100
C201        C  0.82731335  0.66028017  0.22306610     0.82800
O202        O  0.71894017  0.67403995  0.32063900    -0.78300
C203        C  0.85327451  0.80431948  0.33127657     0.83600
O204        O  0.68518935  0.69039378  0.21957977    -0.78400
C205        C  0.80441811  0.82939410  0.16773858     0.83700
C206        C  0.68421166  0.85460513  0.29886666     0.84100
O207        O  0.68356199  0.84406982  0.25755043    -0.80900
O208        O  0.81669858  0.28647960  0.66541465    -0.78400
C209        C  0.72202653  0.17800374  0.65716186     0.82700
O210        O  0.68877552  0.33850175  0.75080374    -0.79500
O211        O  0.68834657  0.18002494  0.79651664    -0.81000
O212        O  0.85140482  0.19346202  0.79362001    -0.80800
O213        O  0.86695113  0.27813131  0.71957720    -0.79400
Zn214      Zn  0.75676268  0.26841250  0.68980866     1.55700
O215        O  0.79434393  0.14570109  0.78590724    -0.80800
Cd216      Cd  0.82623379  0.25428884  0.77074969     1.59700
Cd217      Cd  0.72133437  0.28916615  0.79009117     1.59600
O218        O  0.83054368  0.29785569  0.82403708    -0.80800
O219        O  0.76176307  0.25003464  0.75166029    -1.91300
Cd220      Cd  0.74452947  0.18549509  0.75683812     1.59900
O221        O  0.76053194  0.32139202  0.83906363    -0.80700
O222        O  0.72698239  0.15995610  0.69529987    -0.79400
C223        C  0.69212685  0.34664908  0.70901897     0.83100
C224        C  0.85695846  0.28977396  0.67990115     0.82800
O225        O  0.73155068  0.21921870  0.65078532    -0.78300
C226        C  0.83441645  0.15443227  0.79876454     0.83600
O227        O  0.71661923  0.32243220  0.68368289    -0.78400
C228        C  0.80290938  0.32096667  0.84732863     0.83700
C229        C  0.66433057  0.20677030  0.81973656     0.84100
O230        O  0.67252033  0.24895478  0.82180261    -0.80900
O231        O  0.19679047  0.78853820  0.84685524    -0.78400
C232        C  0.29482689  0.68059637  0.85795942     0.82700
O233        O  0.32806245  0.83436713  0.76092176    -0.79500
O234        O  0.32995579  0.67991843  0.71764522    -0.81000
O235        O  0.16699435  0.69106376  0.72038974    -0.80800
O236        O  0.14700308  0.77648750  0.79284933    -0.79400
Zn237      Zn  0.25719063  0.76902905  0.82339222     1.55700
O238        O  0.22472758  0.64428575  0.73068856    -0.80800
Cd239      Cd  0.18928371  0.75274193  0.74267926     1.59700
Cd240      Cd  0.29293908  0.78754277  0.72218988     1.59600
O241        O  0.18320171  0.79729938  0.69060222    -0.80800
O242        O  0.25369714  0.74920595  0.76194679    -1.91300
Cd243      Cd  0.27392768  0.68535354  0.75815775     1.59900
O244        O  0.25257849  0.82370343  0.67739921    -0.80700
O245        O  0.29216543  0.66147984  0.82000590    -0.79400
C246        C  0.32415763  0.84395939  0.80227853     0.83100
C247        C  0.15656266  0.79045540  0.83193174     0.82800
O248        O  0.28270036  0.72126613  0.86366847    -0.78300
C249        C  0.18479896  0.65217954  0.71698170     0.83600
O250        O  0.29812820  0.82205347  0.82799686    -0.78400
C251        C  0.21019034  0.82283079  0.66943946     0.83700
C252        C  0.35090738  0.70625168  0.69140661     0.84100
O253        O  0.34001103  0.74765618  0.68744914    -0.80900
O254        O  0.19702456  0.22435930  0.67196777    -0.78400
C255        C  0.29950497  0.33084247  0.66358424     0.82700
O256        O  0.33311303  0.17675871  0.75392516    -0.79500
O257        O  0.32940086  0.33203999  0.80456333    -0.81000
O258        O  0.16932433  0.31583105  0.80204688    -0.80800
O259        O  0.15052188  0.23162773  0.72958638    -0.79400
Zn260      Zn  0.25868171  0.24255273  0.69529227     1.55700
O261        O  0.22402777  0.36554035  0.79015476    -0.80800
Cd262      Cd  0.19369476  0.25579116  0.77821750     1.59700
Cd263      Cd  0.29848492  0.22253223  0.79462365     1.59600
O264        O  0.19112935  0.21198747  0.83040542    -0.80800
O265        O  0.25702563  0.26121467  0.75719946    -1.91300
Cd266      Cd  0.27481041  0.32582970  0.76243769     1.59900
O267        O  0.26109881  0.18659660  0.84194882    -0.80700
O268        O  0.29529506  0.35014967  0.70137486    -0.79400
C269        C  0.32738212  0.16761512  0.71263781     0.83100
C270        C  0.15786385  0.22037668  0.68925302     0.82800
O271        O  0.28604724  0.29075468  0.65688025    -0.78300
C272        C  0.18501800  0.35554663  0.80512530     0.83600
O273        O  0.29955594  0.18941185  0.68865538    -0.78400
C274        C  0.21913012  0.18779009  0.85171731     0.83700
C275        C  0.35222962  0.30512379  0.82858313     0.84100
O276        O  0.34494507  0.26281824  0.82900660    -0.80900
O277        O  0.23407671  0.85887727  0.22995789    -0.78400
C278        C  0.30679338  0.82240755  0.35251722     0.82700
O279        O  0.34351210  0.75294416  0.17962829    -0.79500
O280        O  0.30672219  0.67928161  0.32305933    -0.81000
O281        O  0.15421145  0.72784220  0.29273379    -0.80800
O282        O  0.17245549  0.81664886  0.22411845    -0.79400
Zn283      Zn  0.28215464  0.81662577  0.25360769     1.55700
O284        O  0.20462676  0.71420746  0.34575487    -0.80800
Cd285      Cd  0.19483968  0.75374046  0.24211885     1.59700
Cd286      Cd  0.29670867  0.71447591  0.21646431     1.59600
O287        O  0.18541638  0.71233881  0.18817934    -0.80800
O288        O  0.26051293  0.75518975  0.25733449    -1.91300
Cd289      Cd  0.26568420  0.73432085  0.32003969     1.59900
O290        O  0.25246965  0.68149205  0.17255788    -0.80700
O291        O  0.29321988  0.78282650  0.36114084    -0.79400
C292        C  0.35419261  0.79445782  0.18341731     0.83100
C293        C  0.19247606  0.85424703  0.21999234     0.82800
O294        O  0.30358857  0.83887247  0.31343092    -0.78300
C295        C  0.16421893  0.71324212  0.33144932     0.83600
O296        O  0.33442994  0.82031159  0.21115449    -0.78400
C297        C  0.21001488  0.68542016  0.16574660     0.83700
C298        C  0.32994063  0.65623249  0.29562540     0.84100
O299        O  0.33134738  0.66543221  0.25396858    -0.80900
O300        O  0.78464945  0.36369255  0.28290682    -0.78400
C301        C  0.71624106  0.32921020  0.15583665     0.82700
O302        O  0.67219458  0.25734815  0.32516555    -0.79500
O303        O  0.71298418  0.18675429  0.18157507    -0.81000
O304        O  0.86516654  0.23162230  0.22327898    -0.80800
O305        O  0.84547332  0.32081708  0.29198587    -0.79400
Zn306      Zn  0.73776758  0.32216929  0.25558489     1.55700
O307        O  0.81831881  0.21953356  0.16649519    -0.80800
Cd308      Cd  0.82300823  0.25809790  0.27218138     1.59700
Cd309      Cd  0.72039703  0.21914213  0.29035670     1.59600
O310        O  0.82898387  0.21665071  0.32688552    -0.80800
O311        O  0.75866856  0.26037139  0.25223082    -1.91300
Cd312      Cd  0.75604132  0.24041183  0.18868933     1.59900
O313        O  0.76143559  0.18471066  0.33669452    -0.80700
O314        O  0.73079302  0.28987876  0.14723855    -0.79400
C315        C  0.66216255  0.29895473  0.32149630     0.83100
C316        C  0.82529920  0.35847819  0.29584650     0.82800
O317        O  0.71805835  0.34560156  0.19518281    -0.78300
C318        C  0.85751538  0.21720596  0.18390601     0.83600
O319        O  0.68417136  0.32501284  0.29591325    -0.78400
C320        C  0.80304548  0.18950595  0.34734309     0.83700
C321        C  0.68694060  0.16516861  0.20758686     0.84100
O322        O  0.68525031  0.17323324  0.24951578    -0.80900
O323        O  0.22706658  0.15107508  0.28405020    -0.78400
C324        C  0.29375887  0.18719683  0.15795980     0.82700
O325        O  0.34159472  0.25389653  0.32754480    -0.79500
O326        O  0.29767740  0.33028322  0.18819541    -0.81000
O327        O  0.14580266  0.28208244  0.22752497    -0.80800
O328        O  0.16757903  0.19534842  0.29512964    -0.79400
Zn329      Zn  0.27428938  0.19223412  0.25779153     1.55700
O330        O  0.19229921  0.29507763  0.17097010    -0.80800
Cd331      Cd  0.18984430  0.25719894  0.27535780     1.59700
Cd332      Cd  0.29346207  0.29302240  0.29468194     1.59600
O333        O  0.18553604  0.29827501  0.32996519    -0.80800
O334        O  0.25390559  0.25406757  0.25560194    -1.91300
Cd335      Cd  0.25536390  0.27578084  0.19298999     1.59900
O336        O  0.25441635  0.32605045  0.34267158    -0.80700
O337        O  0.28023001  0.22704041  0.15036367    -0.79400
C338        C  0.35124269  0.21233331  0.32297859     0.83100
C339        C  0.18666638  0.15716476  0.29733177     0.82800
O340        O  0.29202668  0.17034091  0.19695165    -0.78300
C341        C  0.15287070  0.29598196  0.18802741     0.83600
O342        O  0.32885388  0.18680963  0.29701246    -0.78400
C343        C  0.21244731  0.32323395  0.35202278     0.83700
C344        C  0.32417322  0.35080889  0.21480452     0.84100
O345        O  0.32757542  0.34040105  0.25597816    -0.80900
O346        O  0.81137225  0.72197423  0.84927874    -0.78400
C347        C  0.71719054  0.83480903  0.85590064     0.82700
O348        O  0.68471779  0.67660303  0.75957575    -0.79500
O349        O  0.69054577  0.83244795  0.71433533    -0.81000
O350        O  0.85099217  0.81846084  0.72422385    -0.80800
O351        O  0.86360523  0.73335522  0.79746314    -0.79400
Zn352      Zn  0.75276928  0.74392691  0.82398862     1.55700
O353        O  0.79465080  0.86701567  0.73113661    -0.80800
Cd354      Cd  0.82511806  0.75802286  0.74574809     1.59700
Cd355      Cd  0.72230975  0.72316516  0.72113023     1.59600
O356        O  0.83296491  0.71463957  0.69315909    -0.80800
O357        O  0.76020275  0.76219410  0.76230482    -1.91300
Cd358      Cd  0.74368346  0.82694654  0.75728456     1.59900
O359        O  0.76460527  0.68882319  0.67527103    -0.80700
O360        O  0.72245407  0.85270066  0.81766927    -0.79400
C361        C  0.68440409  0.66980484  0.80175667     0.83100
C362        C  0.85205629  0.71909958  0.83576528     0.82800
O363        O  0.72826272  0.79408097  0.86280474    -0.78300
C364        C  0.83500750  0.85783235  0.71951945     0.83600
O365        O  0.70878727  0.69277207  0.82833234    -0.78400
C366        C  0.80735993  0.69054575  0.66885289     0.83700
C367        C  0.66871166  0.80658452  0.68820260     0.84100
O368        O  0.67694833  0.76441692  0.68557068    -0.80900
C369        C  0.88895957  0.19391445  0.11088709    -0.20200
C370        C  0.89385508  0.19506590  0.15752551    -0.06700
C371        C  0.92950886  0.17027889  0.17739075     0.14100
C372        C  0.95656327  0.14244930  0.15042520    -0.20200
C373        C  0.94939245  0.13905110  0.10425411    -0.06700
C374        C  0.91596853  0.16624036  0.08402246     0.14100
C375        C  0.90623322  0.16413978  0.03459982    -0.23600
H376        H  0.86228537  0.21337787  0.09538430     0.15400
H377        H  0.98254801  0.12190994  0.16571236     0.15400
C378        C  0.93806072  0.17089362  0.22699373    -0.23500
H379        H  0.87743971  0.18607384  0.02513320     0.05600
H380        H  0.89750421  0.12920120  0.02471854     0.08900
H381        H  0.93616094  0.17564223  0.01551841     0.08900
H382        H  0.90777889  0.15863606  0.24507490     0.08900
H383        H  0.94638270  0.20557264  0.23800120     0.08900
H384        H  0.96689919  0.14897098  0.23637776     0.05600
C385        C  0.19079595  0.91979348  0.16917366    -0.20200
C386        C  0.16763107  0.89218051  0.19940785    -0.06700
C387        C  0.12054067  0.89810953  0.20494973     0.14100
C388        C  0.09719753  0.92704692  0.17613715    -0.20200
C389        C  0.11954713  0.94987402  0.14162914    -0.06700
C390        C  0.16743475  0.94853549  0.14008598     0.14100
C391        C  0.19434160  0.97674927  0.10785850    -0.23600
H392        H  0.22711547  0.91656301  0.16599763     0.15400
H393        H  0.06076512  0.92927060  0.17871351     0.15400
C394        C  0.09448625  0.87393759  0.24084850    -0.23500
H395        H  0.23116284  0.97468964  0.11470601     0.05600
H396        H  0.18416877  0.01254411  0.11097128     0.08900
H397        H  0.18910645  0.96498376  0.07310523     0.08900
H398        H  0.11057488  0.88005603  0.27378915     0.08900
H399        H  0.09329947  0.83735114  0.23390207     0.08900
H400        H  0.05901015  0.88592445  0.24286273     0.05600
C401        C  0.14578982  0.14967172  0.94711706    -0.20200
C402        C  0.14875763  0.10273982  0.94275493    -0.06700
C403        C  0.18186985  0.08425735  0.91370386     0.14100
C404        C  0.20769047  0.11325348  0.88682236    -0.20200
C405        C  0.20087408  0.15985608  0.88805507    -0.06700
C406        C  0.17123421  0.17841124  0.92013250     0.14100
C407        C  0.16589390  0.22857694  0.92577351    -0.23600
H408        H  0.12176197  0.16407998  0.97039685     0.15400
H409        H  0.23093939  0.09932658  0.86250401     0.15400
C410        C  0.18845910  0.03426744  0.90860793    -0.23500
H411        H  0.14363188  0.23705557  0.95442143     0.05600
H412        H  0.15056578  0.24361813  0.89554175     0.08900
H413        H  0.19940235  0.24412036  0.93199981     0.08900
H414        H  0.15661455  0.01832982  0.89707782     0.08900
H415        H  0.19891364  0.01957425  0.94101220     0.08900
H416        H  0.21514769  0.02613640  0.88381451     0.05600
C417        C  0.12851616  0.81106707  0.90707851    -0.20200
C418        C  0.12151661  0.81167973  0.86070353    -0.06700
C419        C  0.08530928  0.83762277  0.84336990     0.14100
C420        C  0.06057059  0.86567665  0.87233866    -0.20200
C421        C  0.07145056  0.86877227  0.91779285    -0.06700
C422        C  0.10412673  0.83927628  0.93579756     0.14100
C423        C  0.11382782  0.83762022  0.98522811    -0.23600
H424        H  0.15499031  0.79004875  0.92078538     0.15400
H425        H  0.03491409  0.88780017  0.85883737     0.15400
C426        C  0.07425433  0.83840491  0.79427110    -0.23500
H427        H  0.13781578  0.81020233  0.99361841     0.05600
H428        H  0.08200889  0.83145155  0.00381478     0.08900
H429        H  0.12920788  0.86956914  0.99676600     0.08900
H430        H  0.06479028  0.80414727  0.78286962     0.08900
H431        H  0.10381865  0.85057100  0.77500586     0.08900
H432        H  0.04539083  0.86105733  0.78688413     0.05600
C433        C  0.87137803  0.05983373  0.87714464    -0.20200
C434        C  0.91813404  0.06724927  0.87846988    -0.06700
C435        C  0.93751926  0.09804256  0.84806499     0.14100
C436        C  0.90931649  0.12365941  0.82038353    -0.20200
C437        C  0.86206158  0.11956547  0.82198648    -0.06700
C438        C  0.84298076  0.08561937  0.84942972     0.14100
C439        C  0.79273170  0.07791337  0.85189794    -0.23600
H440        H  0.85666161  0.03580604  0.90003679     0.15400
H441        H  0.92433690  0.14839485  0.79844469     0.15400
C442        C  0.98800519  0.10414789  0.84452030    -0.23500
H443        H  0.78398830  0.05082352  0.87580967     0.05600
H444        H  0.77975313  0.06766168  0.81863541     0.08900
H445        H  0.77547287  0.10908302  0.86314127     0.08900
H446        H  0.00437325  0.07113185  0.83833710     0.08900
H447        H  0.00175749  0.11925039  0.87553404     0.08900
H448        H  0.99722305  0.12681711  0.81658241     0.05600
C449        C  0.86220907  0.93034008  0.11721326    -0.20200
C450        C  0.88488150  0.91085659  0.08070048    -0.06700
C451        C  0.87569546  0.86545030  0.06953360     0.14100
C452        C  0.84667062  0.84011715  0.09694642    -0.20200
C453        C  0.82580330  0.85925517  0.13452549    -0.06700
C454        C  0.83269156  0.90519975  0.14405049     0.14100
C455        C  0.81095878  0.92707327  0.18408143    -0.23600
H456        H  0.86879794  0.96516742  0.12569890     0.15400
H457        H  0.84159444  0.80468696  0.09007576     0.15400
C458        C  0.89833155  0.84271191  0.03050751    -0.23500
H459        H  0.82042478  0.96306754  0.18713275     0.05600
H460        H  0.82177784  0.90969127  0.21503528     0.08900
H461        H  0.77364869  0.92505940  0.18104644     0.08900
H462        H  0.93558089  0.84423730  0.03447284     0.08900
H463        H  0.88838409  0.85958630  0.99902275     0.08900
H464        H  0.88846258  0.80679840  0.02768970     0.05600
C465        C  0.58268485  0.10754015  0.16131044    -0.20200
C466        C  0.60214116  0.07632711  0.13172201    -0.06700
C467        C  0.64959086  0.07108035  0.13115606     0.14100
C468        C  0.67643218  0.09863816  0.15864746    -0.20200
C469        C  0.65704163  0.13100969  0.18700400    -0.06700
C470        C  0.60952999  0.13482359  0.18906816     0.14100
C471        C  0.58716155  0.16969692  0.21818678    -0.23600
H472        H  0.54635254  0.11183575  0.16136209     0.15400
H473        H  0.71288600  0.09624443  0.15667248     0.15400
C474        C  0.67223800  0.03872445  0.09947124    -0.23500
H475        H  0.54981119  0.16891748  0.21484986     0.05600
H476        H  0.59896984  0.20376632  0.20865955     0.08900
H477        H  0.59564370  0.16341549  0.25370252     0.08900
H478        H  0.66305622  0.04708515  0.06452841     0.08900
H479        H  0.66139873  0.00386263  0.10699149     0.08900
H480        H  0.70960680  0.04006898  0.10235865     0.05600
C481        C  0.36655621  0.15072645  0.05986626    -0.20200
C482        C  0.36804917  0.10410503  0.06679297    -0.06700
C483        C  0.33912351  0.08469502  0.09905872     0.14100
C484        C  0.31255573  0.11283369  0.12591181    -0.20200
C485        C  0.31410874  0.15980317  0.12172312    -0.06700
C486        C  0.33987280  0.17890809  0.08671614     0.14100
C487        C  0.34181289  0.22891887  0.07886975    -0.23600
H488        H  0.38809741  0.16542882  0.03458376     0.15400
H489        H  0.29203099  0.09807833  0.15197606     0.15400
C490        C  0.33812769  0.03478161  0.10777470    -0.23500
H491        H  0.36436279  0.23757026  0.05055423     0.05600
H492        H  0.35496180  0.24626570  0.10904756     0.08900
H493        H  0.30759024  0.24172666  0.07069198     0.08900
H494        H  0.37229200  0.02285871  0.11742599     0.08900
H495        H  0.32654724  0.01667806  0.07742302     0.08900
H496        H  0.31457996  0.02602097  0.13525434     0.05600
C497        C  0.42208098  0.84248159  0.17442808    -0.20200
C498        C  0.38912988  0.81503171  0.15437532    -0.06700
C499        C  0.38525024  0.81470754  0.10738146     0.14100
C500        C  0.41167478  0.84456281  0.08206194    -0.20200
C501        C  0.44246443  0.87428178  0.10240553    -0.06700
C502        C  0.44910158  0.87175511  0.14905326     0.14100
C503        C  0.48229949  0.90196333  0.17262735    -0.23600
H504        H  0.42511352  0.84260863  0.21048631     0.15400
H505        H  0.40683966  0.84614846  0.04623533     0.15400
C506        C  0.35121039  0.78522100  0.08405728    -0.23500
H507        H  0.48222100  0.89640454  0.20926745     0.05600
H508        H  0.47358005  0.93770522  0.16646661     0.08900
H509        H  0.51695028  0.89510463  0.16023469     0.08900
H510        H  0.31665024  0.79336969  0.09596287     0.08900
H511        H  0.35871787  0.74937749  0.09106342     0.08900
H512        H  0.35198491  0.78989865  0.04729959     0.05600
C513        C  0.69489290  0.90897082  0.88681371    -0.20200
C514        C  0.69530711  0.86199326  0.89174053    -0.06700
C515        C  0.67029284  0.84261722  0.92732706     0.14100
C516        C  0.64216275  0.87020543  0.95351399    -0.20200
C517        C  0.63804289  0.91622424  0.94477265    -0.06700
C518        C  0.66656081  0.93628146  0.91268706     0.14100
C519        C  0.66711137  0.98646219  0.90531552    -0.23600
H520        H  0.71525722  0.92436277  0.86098191     0.15400
H521        H  0.62079882  0.85522901  0.97880372     0.15400
C522        C  0.67067701  0.79284647  0.93660573    -0.23500
H523        H  0.69384062  0.99648553  0.88132184     0.05600
H524        H  0.67384250  0.00397657  0.93740874     0.08900
H525        H  0.63439390  0.99804060  0.89150571     0.08900
H526        H  0.70556217  0.78176909  0.94454549     0.08900
H527        H  0.65770555  0.77407621  0.90720570     0.08900
H528        H  0.64900798  0.78407939  0.96555397     0.05600
C529        C  0.56872889  0.13037966  0.85614474    -0.20200
C530        C  0.56982585  0.13612477  0.90272102    -0.06700
C531        C  0.59797646  0.17024744  0.92096222     0.14100
C532        C  0.62590970  0.19546028  0.89242325    -0.20200
C533        C  0.62729073  0.18691634  0.84642006    -0.06700
C534        C  0.59712559  0.15508444  0.82785192     0.14100
C535        C  0.59473763  0.14689745  0.77817735    -0.23600
H536        H  0.54672623  0.10504305  0.84182750     0.15400
H537        H  0.64905303  0.21992839  0.90648104     0.15400
C538        C  0.60127635  0.17852413  0.97053431    -0.23500
H539        H  0.56723905  0.12309525  0.76932308     0.05600
H540        H  0.62683105  0.13220925  0.76585361     0.08900
H541        H  0.58806954  0.17906588  0.76069046     0.08900
H542        H  0.61239744  0.14740056  0.98769793     0.08900
H543        H  0.56799424  0.18940068  0.98372809     0.08900
H544        H  0.62605496  0.20535552  0.97865785     0.05600
C545        C  0.39851919  0.87839204  0.81839688    -0.20200
C546        C  0.35139041  0.88035612  0.82218380    -0.06700
C547        C  0.33142172  0.91370400  0.84943564     0.14100
C548        C  0.35916704  0.94207749  0.87484110    -0.20200
C549        C  0.40640858  0.93770775  0.87419576    -0.06700
C550        C  0.42643247  0.90636610  0.84438723     0.14100
C551        C  0.47686469  0.89985063  0.84191690    -0.23600
H552        H  0.41354915  0.85279423  0.79729174     0.15400
H553        H  0.34373942  0.96657122  0.89693519     0.15400
C554        C  0.28084439  0.91934115  0.85208418    -0.23500
H555        H  0.48626115  0.87284806  0.81797715     0.05600
H556        H  0.49021761  0.89031788  0.87520559     0.08900
H557        H  0.49323508  0.93134410  0.83055259     0.08900
H558        H  0.26506209  0.88913046  0.86701618     0.08900
H559        H  0.26691179  0.92474139  0.81811564     0.08900
H560        H  0.27124720  0.94867078  0.87306473     0.05600
C561        C  0.12272601  0.20552678  0.61543248    -0.20200
C562        C  0.12107642  0.20012502  0.66196713    -0.06700
C563        C  0.08774505  0.17131026  0.68046184     0.14100
C564        C  0.06033006  0.14560819  0.65176227    -0.20200
C565        C  0.06565866  0.14767844  0.60537659    -0.06700
C566        C  0.09540711  0.17973538  0.58694634     0.14100
C567        C  0.09881126  0.18638663  0.53718355    -0.23600
H568        H  0.14701371  0.22860853  0.60113704     0.15400
H569        H  0.03718749  0.12113945  0.66564908     0.15400
C570        C  0.08282556  0.16477465  0.73011559    -0.23500
H571        H  0.12210329  0.21432667  0.52865567     0.05600
H572        H  0.06497658  0.19467747  0.52349537     0.08900
H573        H  0.11171477  0.15551902  0.52073959     0.08900
H574        H  0.07343357  0.19708568  0.74623615     0.08900
H575        H  0.11500695  0.15216498  0.74441275     0.08900
H576        H  0.05601861  0.14000946  0.73824180     0.05600
C577        C  0.09237538  0.08712399  0.34542625    -0.20200
C578        C  0.11496399  0.06666707  0.38133317    -0.06700
C579        C  0.16280480  0.06884052  0.38313019     0.14100
C580        C  0.18587361  0.09543870  0.35199313    -0.20200
C581        C  0.16241716  0.12040935  0.31984116    -0.06700
C582        C  0.11539870  0.11424922  0.31487236     0.14100
C583        C  0.08917362  0.13639653  0.27775789    -0.23600
H584        H  0.05598458  0.08443273  0.34279361     0.15400
H585        H  0.22213460  0.09944744  0.35498648     0.15400
C586        C  0.18999984  0.04410457  0.41784913    -0.23500
H587        H  0.05348878  0.12491384  0.27697154     0.05600
H588        H  0.10472225  0.12784848  0.24510284     0.08900
H589        H  0.08869005  0.17338584  0.28222105     0.08900
H590        H  0.18073288  0.00795144  0.41765580     0.08900
H591        H  0.18402914  0.05873754  0.45141498     0.08900
H592        H  0.22684249  0.04646389  0.41125582     0.05600
C593        C  0.93408388  0.91873299  0.66580675    -0.20200
C594        C  0.91152291  0.95074903  0.63973730    -0.06700
C595        C  0.86462419  0.95685374  0.64548671     0.14100
C596        C  0.84096111  0.92794599  0.67432200    -0.20200
C597        C  0.86297643  0.89277695  0.69711066    -0.06700
C598        C  0.91072027  0.88967117  0.69429602     0.14100
C599        C  0.93772888  0.85565495  0.72040972    -0.23600
H600        H  0.97032967  0.91488630  0.66206312     0.15400
H601        H  0.80458768  0.93118939  0.67684782     0.15400
C602        C  0.83902377  0.99170427  0.61931947    -0.23500
H603        H  0.97465168  0.86145575  0.71722139     0.05600
H604        H  0.93106111  0.82120600  0.70779271     0.08900
H605        H  0.92906581  0.85801129  0.75638513     0.08900
H606        H  0.84309188  0.98539695  0.58300261     0.08900
H607        H  0.85199983  0.02570931  0.62763171     0.08900
H608        H  0.80236168  0.99111002  0.62710378     0.05600
C609        C  0.87525362  0.15331338  0.44585989    -0.20200
C610        C  0.87924080  0.10705393  0.43746184    -0.06700
C611        C  0.85190065  0.08731014  0.40380484     0.14100
C612        C  0.82404040  0.11476405  0.37732490    -0.20200
C613        C  0.82350454  0.16152436  0.38292024    -0.06700
C614        C  0.84812303  0.18087226  0.41866782     0.14100
C615        C  0.84608093  0.23065130  0.42796951    -0.23600
H616        H  0.89551518  0.16838486  0.47206565     0.15400
H617        H  0.80480000  0.09994064  0.35023175     0.15400
C618        C  0.85208323  0.03729646  0.39543822    -0.23500
H619        H  0.86577445  0.23987839  0.45819818     0.05600
H620        H  0.81046340  0.24094000  0.43349065     0.08900
H621        H  0.86018398  0.24974104  0.39946663     0.08900
H622        H  0.84401207  0.01927570  0.42682606     0.08900
H623        H  0.88556550  0.02626463  0.38297274     0.08900
H624        H  0.82660829  0.02745129  0.37000485     0.05600
C625        C  0.19112843  0.89978409  0.64439616    -0.20200
C626        C  0.19048673  0.85341246  0.63594912    -0.06700
C627        C  0.16565421  0.83672377  0.59928026     0.14100
C628        C  0.14011012  0.86654164  0.57326920    -0.20200
C629        C  0.13832490  0.91272722  0.58319888    -0.06700
C630        C  0.16504723  0.92970856  0.61875677     0.14100
C631        C  0.16393926  0.97863593  0.63193357    -0.23600
H632        H  0.20993413  0.91226714  0.67288104     0.15400
H633        H  0.12013541  0.85344307  0.54586025     0.15400
C634        C  0.16580506  0.78737004  0.58773995    -0.23500
H635        H  0.18525754  0.98546108  0.66169956     0.05600
H636        H  0.12880611  0.98881388  0.64011219     0.08900
H637        H  0.17693581  0.99958227  0.60419498     0.08900
H638        H  0.15093017  0.76760302  0.61540665     0.08900
H639        H  0.20101877  0.77598679  0.58181134     0.08900
H640        H  0.14585632  0.78026387  0.55712397     0.05600
C641        C  0.94564093  0.88578015  0.36500364    -0.20200
C642        C  0.94471202  0.88146916  0.41170294    -0.06700
C643        C  0.91755023  0.84740012  0.43104215     0.14100
C644        C  0.89008389  0.82091648  0.40339030    -0.20200
C645        C  0.88905015  0.82718719  0.35708645    -0.06700
C646        C  0.91819475  0.85916201  0.33741601     0.14100
C647        C  0.91853056  0.86755555  0.28777845    -0.23600
H648        H  0.96669306  0.91142938  0.35003518     0.15400
H649        H  0.86788268  0.79612816  0.41819277     0.15400
C650        C  0.91500613  0.84007723  0.48078541    -0.23500
H651        H  0.94200653  0.89512775  0.27860364     0.05600
H652        H  0.88419405  0.87716087  0.27633002     0.08900
H653        H  0.92973739  0.83682358  0.26985728     0.08900
H654        H  0.90320691  0.87121581  0.49765484     0.08900
H655        H  0.94869816  0.83027628  0.49376890     0.08900
H656        H  0.89106261  0.81277745  0.48958207     0.05600
C657        C  0.16007443  0.58487957  0.10558220    -0.20200
C658        C  0.12656665  0.60577658  0.07958299    -0.06700
C659        C  0.12553761  0.65335539  0.07734101     0.14100
C660        C  0.15571033  0.67840463  0.10359024    -0.20200
C661        C  0.18697810  0.65742483  0.13188366    -0.06700
C662        C  0.19003633  0.61007304  0.13203956     0.14100
C663        C  0.22264718  0.58591049  0.16224581    -0.23600
H664        H  0.16122575  0.54850395  0.10723809     0.15400
H665        H  0.15374291  0.71480823  0.10338577     0.15400
C666        C  0.09299120  0.67821200  0.04752643    -0.23500
H667        H  0.21948228  0.54882602  0.15920262     0.05600
H668        H  0.21599710  0.59523642  0.19755375     0.08900
H669        H  0.25781938  0.59513618  0.15339134     0.08900
H670        H  0.05783593  0.67371961  0.05944341     0.08900
H671        H  0.09612789  0.66569406  0.01271735     0.08900
H672        H  0.09988067  0.71491238  0.04726223     0.05600
C673        C  0.12163868  0.31652465  0.11436276    -0.20200
C674        C  0.11554749  0.31535773  0.16082444    -0.06700
C675        C  0.07709720  0.33700714  0.17946043     0.14100
C676        C  0.04977524  0.36404355  0.15189803    -0.20200
C677        C  0.05998555  0.36968006  0.10655692    -0.06700
C678        C  0.09446374  0.34326259  0.08703257     0.14100
C679        C  0.10325707  0.34340792  0.03737331    -0.23600
H680        H  0.14942961  0.29814656  0.09943518     0.15400
H681        H  0.02242177  0.38335849  0.16643999     0.15400
C682        C  0.06576845  0.33393992  0.22838248    -0.23500
H683        H  0.12874821  0.31776787  0.02770824     0.05600
H684        H  0.11642321  0.37647010  0.02649692     0.08900
H685        H  0.07153213  0.33567215  0.01914632     0.08900
H686        H  0.09370142  0.34812906  0.24870976     0.08900
H687        H  0.06000895  0.29828230  0.23759790     0.08900
H688        H  0.03456281  0.35292770  0.23671610     0.05600
C689        C  0.14655142  0.44820680  0.88452219    -0.20200
C690        C  0.09963740  0.44115270  0.88448543    -0.06700
C691        C  0.08092882  0.40952679  0.85430237     0.14100
C692        C  0.10977905  0.38453570  0.82666381    -0.20200
C693        C  0.15690453  0.38969866  0.82841026    -0.06700
C694        C  0.17547832  0.42304727  0.85686622     0.14100
C695        C  0.22569372  0.43070472  0.86033564    -0.23600
H696        H  0.16082818  0.47256330  0.90753534     0.15400
H697        H  0.09543219  0.35925270  0.80470182     0.15400
C698        C  0.03097504  0.39953812  0.85293194    -0.23500
H699        H  0.23405069  0.45717535  0.88522986     0.05600
H700        H  0.23916527  0.44178190  0.82761119     0.08900
H701        H  0.24281115  0.39924597  0.87080819     0.08900
H702        H  0.01207547  0.42989929  0.84236011     0.08900
H703        H  0.01919489  0.38866313  0.88638336     0.08900
H704        H  0.02282816  0.37225351  0.82885337     0.05600
C705        C  0.82877774  0.59177590  0.17533442    -0.20200
C706        C  0.85259942  0.62252722  0.20230745    -0.06700
C707        C  0.90030749  0.61957344  0.20436291     0.14100
C708        C  0.92285911  0.58968101  0.17580915    -0.20200
C709        C  0.89920386  0.56245171  0.14551160    -0.06700
C710        C  0.85157438  0.56190521  0.14664271     0.14100
C711        C  0.82480278  0.53236133  0.11547258    -0.23600
H712        H  0.79223292  0.59333534  0.17419713     0.15400
H713        H  0.95947382  0.58928931  0.17535983     0.15400
C714        C  0.92793029  0.64790879  0.23608367    -0.23500
H715        H  0.78786735  0.53690406  0.12009754     0.05600
H716        H  0.83296760  0.49654845  0.12188956     0.08900
H717        H  0.83312528  0.54062702  0.08031619     0.08900
H718        H  0.91501557  0.64388990  0.27062505     0.08900
H719        H  0.92666435  0.68379397  0.22634187     0.08900
H720        H  0.96404380  0.63778294  0.23598647     0.05600
C721        C  0.94715106  0.64337052  0.87589936    -0.20200
C722        C  0.93490079  0.63786005  0.92073847    -0.06700
C723        C  0.89965676  0.66429256  0.93880508     0.14100
C724        C  0.87559273  0.69320996  0.91068002    -0.20200
C725        C  0.88542368  0.69620323  0.86487998    -0.06700
C726        C  0.92314428  0.67234016  0.84766754     0.14100
C727        C  0.93716383  0.67497892  0.79933902    -0.23600
H728        H  0.97465061  0.62344823  0.86245670     0.15400
H729        H  0.84738979  0.71203369  0.92422920     0.15400
C730        C  0.88503781  0.66003798  0.98683588    -0.23500
H731        H  0.96709335  0.65363044  0.79216521     0.05600
H732        H  0.94631834  0.71010713  0.79085300     0.08900
H733        H  0.90925618  0.66319815  0.77749790     0.08900
H734        H  0.91304958  0.67022951  0.00929382     0.08900
H735        H  0.87515840  0.62478108  0.99396038     0.08900
H736        H  0.85561158  0.68187537  0.99456200     0.05600
C737        C  0.83385989  0.41822136  0.92471710    -0.20200
C738        C  0.87252303  0.40066634  0.94540356    -0.06700
C739        C  0.88457282  0.35544605  0.93788912     0.14100
C740        C  0.85918946  0.32954811  0.90785539    -0.20200
C741        C  0.82202737  0.34767922  0.88485154    -0.06700
C742        C  0.80803362  0.39212073  0.89485676     0.14100
C743        C  0.76778700  0.41312155  0.87230241    -0.23600
H744        H  0.82507978  0.45318509  0.93041052     0.15400
H745        H  0.86969508  0.29530820  0.90078500     0.15400
C746        C  0.92600541  0.33538007  0.95928471    -0.23500
H747        H  0.76266047  0.44850799  0.88311434     0.05600
H748        H  0.73677025  0.39408189  0.88087425     0.08900
H749        H  0.77264675  0.41293851  0.83556825     0.08900
H750        H  0.92262201  0.33666479  0.99615610     0.08900
H751        H  0.95648904  0.35452816  0.94914401     0.08900
H752        H  0.93097991  0.29973386  0.94929833     0.05600
C753        C  0.44659572  0.13598182  0.36055460    -0.20200
C754        C  0.44249698  0.13986610  0.40698646    -0.06700
C755        C  0.41370752  0.17310885  0.42523010     0.14100
C756        C  0.38691087  0.19918290  0.39654774    -0.20200
C757        C  0.38744172  0.19190659  0.35027014    -0.06700
C758        C  0.41903159  0.16126330  0.33188683     0.14100
C759        C  0.42360054  0.15478535  0.28215848    -0.23600
H760        H  0.46919472  0.11088790  0.34673197     0.15400
H761        H  0.36328720  0.22322150  0.41053196     0.15400
C762        C  0.41082568  0.18081051  0.47490958    -0.23500
H763        H  0.45185118  0.13170020  0.27373437     0.05600
H764        H  0.43043053  0.18762414  0.26602065     0.08900
H765        H  0.39228206  0.14004004  0.26807957     0.08900
H766        H  0.44492946  0.18852713  0.48830465     0.08900
H767        H  0.39729465  0.15054204  0.49175859     0.08900
H768        H  0.38821643  0.20943121  0.48322496     0.05600
C769        C  0.67402758  0.92767342  0.33698547    -0.20200
C770        C  0.65435374  0.89024715  0.31604898    -0.06700
C771        C  0.60738448  0.88334206  0.31936953     0.14100
C772        C  0.58183335  0.91166082  0.34707237    -0.20200
C773        C  0.60213398  0.94687503  0.37117790    -0.06700
C774        C  0.64832267  0.95654468  0.36414734     0.14100
C775        C  0.67133879  0.99513012  0.38755630    -0.23600
H776        H  0.71014453  0.93283454  0.33402632     0.15400
H777        H  0.54623699  0.90471434  0.35196849     0.15400
C778        C  0.58478591  0.84427287  0.29632342    -0.23500
H779        H  0.70777537  0.99703968  0.37895528     0.05600
H780        H  0.66850824  0.99108603  0.42426638     0.08900
H781        H  0.65536350  0.02728734  0.37745372     0.08900
H782        H  0.59960565  0.81216874  0.30817253     0.08900
H783        H  0.58966035  0.84700444  0.25970138     0.08900
H784        H  0.54790629  0.84344543  0.30305007     0.05600
C785        C  0.67195428  0.08129486  0.59067588    -0.20200
C786        C  0.64405072  0.10484857  0.56106613    -0.06700
C787        C  0.64859223  0.15181925  0.55725311     0.14100
C788        C  0.67742131  0.17463469  0.58688105    -0.20200
C789        C  0.70139095  0.15148031  0.62035108    -0.06700
C790        C  0.70081796  0.10382217  0.62022488     0.14100
C791        C  0.72964006  0.07611984  0.65130623    -0.23600
H792        H  0.66910035  0.04502227  0.59248781     0.15400
H793        H  0.67863216  0.21099472  0.58583086     0.15400
C794        C  0.62084283  0.17820043  0.52431097    -0.23500
H795        H  0.72802016  0.03976698  0.64291879     0.05600
H796        H  0.71775595  0.07969911  0.68622247     0.08900
H797        H  0.76548160  0.08674728  0.64866029     0.08900
H798        H  0.58432204  0.17312170  0.53098012     0.08900
H799        H  0.62875359  0.16682925  0.48986811     0.08900
H800        H  0.62801190  0.21478580  0.52640591     0.05600
C801        C  0.60052292  0.84898256  0.58918102    -0.20200
C802        C  0.57775682  0.88565821  0.60889453    -0.06700
C803        C  0.58027902  0.89124527  0.65590804     0.14100
C804        C  0.60761572  0.86225726  0.68089794    -0.20200
C805        C  0.63308888  0.82800785  0.66072042    -0.06700
C806        C  0.62839066  0.82030248  0.61442529     0.14100
C807        C  0.65465539  0.78380386  0.59105861    -0.23600
H808        H  0.59852105  0.84406857  0.55339318     0.15400
H809        H  0.61074945  0.86765671  0.71657474     0.15400
C810        C  0.55499315  0.92777234  0.68051653    -0.23500
H811        H  0.64790227  0.78331783  0.55459267     0.05600
H812        H  0.64495426  0.75053085  0.60466105     0.08900
H813        H  0.69142406  0.78919934  0.59600836     0.08900
H814        H  0.51852357  0.92619463  0.67205528     0.08900
H815        H  0.56890394  0.96125071  0.67188646     0.08900
H816        H  0.55806298  0.92419411  0.71728530     0.05600
C817        C  0.40185954  0.13260605  0.69665232    -0.20200
C818        C  0.35487122  0.13235868  0.69063539    -0.06700
C819        C  0.33557888  0.10176559  0.65988400     0.14100
C820        C  0.36391019  0.07495623  0.63343778    -0.20200
C821        C  0.41120893  0.07806099  0.63627113    -0.06700
C822        C  0.43042234  0.10610466  0.66971656     0.14100
C823        C  0.48077810  0.11045905  0.67581576    -0.23600
H824        H  0.41647261  0.15577861  0.72061627     0.15400
H825        H  0.34884754  0.05261762  0.60897705     0.15400
C826        C  0.28508990  0.09713134  0.65466882    -0.23500
H827        H  0.48948379  0.13454176  0.70288519     0.05600
H828        H  0.49651823  0.12284884  0.64456351     0.08900
H829        H  0.49540679  0.07738123  0.68491918     0.08900
H830        H  0.27039125  0.12835652  0.64073344     0.08900
H831        H  0.26951756  0.08992089  0.68757659     0.08900
H832        H  0.27605788  0.06924504  0.63160468     0.05600
C833        C  0.38222211  0.86085900  0.44797264    -0.20200
C834        C  0.37939367  0.90776242  0.44339720    -0.06700
C835        C  0.34786520  0.92604443  0.41281406     0.14100
C836        C  0.32274850  0.89694061  0.38559006    -0.20200
C837        C  0.32801177  0.85014727  0.38791259    -0.06700
C838        C  0.35695031  0.83175063  0.42078511     0.14100
C839        C  0.36361823  0.78175357  0.42579822    -0.23600
H840        H  0.40593127  0.84680792  0.47176680     0.15400
H841        H  0.29994541  0.91096793  0.36093023     0.15400
C842        C  0.34223745  0.97601192  0.40641193    -0.23500
H843        H  0.38876079  0.77368725  0.45211694     0.05600
H844        H  0.37596130  0.76710641  0.39393115     0.08900
H845        H  0.33126673  0.76564856  0.43540792     0.08900
H846        H  0.37482180  0.99122708  0.39609859     0.08900
H847        H  0.33035531  0.99173795  0.43792655     0.08900
H848        H  0.31693224  0.98388782  0.38019234     0.05600
C849        C  0.34034952  0.58709274  0.93078004    -0.20200
C850        C  0.37455830  0.61016730  0.95402342    -0.06700
C851        C  0.37598952  0.65772678  0.95173347     0.14100
C852        C  0.34652987  0.68007788  0.92261611    -0.20200
C853        C  0.31632868  0.65625667  0.89526612    -0.06700
C854        C  0.31143820  0.60941479  0.90118602     0.14100
C855        C  0.27608263  0.58265405  0.87643331    -0.23600
H856        H  0.33799444  0.55083430  0.93340487     0.15400
H857        H  0.34935820  0.71622286  0.91895371     0.15400
C858        C  0.40856608  0.68535222  0.97914839    -0.23500
H859        H  0.27481869  0.54723498  0.88799707     0.05600
H860        H  0.28357745  0.58189933  0.84019984     0.08900
H861        H  0.24227728  0.59777967  0.88210206     0.08900
H862        H  0.44370726  0.67983524  0.96757924     0.08900
H863        H  0.40549586  0.67626921  0.01492917     0.08900
H864        H  0.40159339  0.72191210  0.97617494     0.05600
C865        C  0.36413994  0.44795984  0.14433549    -0.20200
C866        C  0.41076244  0.43932040  0.14243359    -0.06700
C867        C  0.42929446  0.40557919  0.17034642     0.14100
C868        C  0.40027228  0.37957715  0.19695158    -0.20200
C869        C  0.35340318  0.38598615  0.19580184    -0.06700
C870        C  0.33525636  0.42173107  0.17065569     0.14100
C871        C  0.28540969  0.43210723  0.17135746    -0.23600
H872        H  0.34997074  0.47437520  0.12379549     0.15400
H873        H  0.41391310  0.35203780  0.21636642     0.15400
C874        C  0.47898591  0.39449356  0.17003043    -0.23500
H875        H  0.27730495  0.46243309  0.15136111     0.05600
H876        H  0.27438408  0.43842397  0.20623705     0.08900
H877        H  0.26587934  0.40359549  0.15729051     0.08900
H878        H  0.49874925  0.42396058  0.18167276     0.08900
H879        H  0.48974255  0.38498358  0.13577855     0.08900
H880        H  0.48703020  0.36595830  0.19249556     0.05600
C881        C  0.60523622  0.66437860  0.09209407    -0.20200
C882        C  0.57271335  0.63768166  0.11347425    -0.06700
C883        C  0.56672034  0.64172800  0.16017222     0.14100
C884        C  0.59565676  0.66995532  0.18455098    -0.20200
C885        C  0.63015110  0.69419295  0.16341124    -0.06700
C886        C  0.63442435  0.69219645  0.11656289     0.14100
C887        C  0.67180317  0.71664178  0.09264635    -0.23600
H888        H  0.60989994  0.66117450  0.05634670     0.15400
H889        H  0.59249653  0.67185819  0.22055313     0.15400
C890        C  0.53000891  0.61662081  0.18449388    -0.23500
H891        H  0.67115347  0.71006766  0.05614231     0.05600
H892        H  0.70508239  0.70545612  0.10564002     0.08900
H893        H  0.66818067  0.75340086  0.09786107     0.08900
H894        H  0.53635850  0.57991984  0.18320221     0.08900
H895        H  0.49675467  0.62417879  0.16910714     0.08900
H896        H  0.52831375  0.62646455  0.22024638     0.05600
C897        C  0.63781110  0.36556152  0.06190871    -0.20200
C898        C  0.64201598  0.41235738  0.06483407    -0.06700
C899        C  0.67549106  0.43116084  0.09286156     0.14100
C900        C  0.70145186  0.40284423  0.12006374    -0.20200
C901        C  0.69470739  0.35615815  0.12006298    -0.06700
C902        C  0.66348916  0.33710616  0.08942897     0.14100
C903        C  0.65431628  0.28726797  0.08797705    -0.23600
H904        H  0.61176532  0.35140877  0.04066905     0.15400
H905        H  0.72586263  0.41740915  0.14286738     0.15400
C906        C  0.68329542  0.48122110  0.09473353    -0.23500
H907        H  0.62737419  0.27868074  0.06359789     0.05600
H908        H  0.64317650  0.27547556  0.12133640     0.08900
H909        H  0.68531546  0.26896239  0.07779501     0.08900
H910        H  0.65287616  0.49872593  0.10759716     0.08900
H911        H  0.69122979  0.49383065  0.06079552     0.08900
H912        H  0.71196372  0.48997552  0.11702684     0.05600
C913        C  0.64303650  0.56988234  0.86903784    -0.20200
C914        C  0.59900713  0.58386044  0.87994054    -0.06700
C915        C  0.58128602  0.62271237  0.85856918     0.14100
C916        C  0.60893646  0.64792398  0.82975842    -0.20200
C917        C  0.65396142  0.63589547  0.82195455    -0.06700
C918        C  0.67085071  0.59579574  0.84083846     0.14100
C919        C  0.71867045  0.58100616  0.83204155    -0.23600
H920        H  0.65668591  0.54004024  0.88466421     0.15400
H921        H  0.59614319  0.67875768  0.81531774     0.15400
C922        C  0.53332212  0.63824221  0.86595212    -0.23500
H923        H  0.72650290  0.54865452  0.84874052     0.05600
H924        H  0.74268089  0.60672809  0.84464075     0.08900
H925        H  0.72376538  0.57648205  0.79558934     0.08900
H926        H  0.52877728  0.65034930  0.90070157     0.08900
H927        H  0.50955997  0.61021888  0.85902260     0.08900
H928        H  0.52428179  0.66654235  0.84357009     0.05600
C929        C  0.40208600  0.36124296  0.92986202    -0.20200
C930        C  0.44117752  0.38142720  0.91211263    -0.06700
C931        C  0.45436480  0.37030922  0.86794156     0.14100
C932        C  0.42619891  0.34242644  0.84187277    -0.20200
C933        C  0.38577299  0.32503166  0.85911009    -0.06700
C934        C  0.37413276  0.33367256  0.90385568     0.14100
C935        C  0.33066806  0.31608269  0.92338819    -0.23600
H936        H  0.39203263  0.36882908  0.96382677     0.15400
H937        H  0.43465523  0.33582092  0.80729092     0.15400
C938        C  0.49645573  0.38945781  0.84718827    -0.23500
H939        H  0.32638122  0.32642936  0.95877967     0.05600
H940        H  0.33046699  0.27880213  0.92193068     0.08900
H941        H  0.30145182  0.32924641  0.90418178     0.08900
H942        H  0.52653704  0.37850428  0.86641786     0.08900
H943        H  0.49460731  0.42672002  0.84694241     0.08900
H944        H  0.50090482  0.37784520  0.81219556     0.05600
C945        C  0.15929130  0.32909524  0.41484625    -0.20200
C946        C  0.19260532  0.34983863  0.38879240    -0.06700
C947        C  0.20033935  0.39641765  0.39368016     0.14100
C948        C  0.17119637  0.42176816  0.42089125    -0.20200
C949        C  0.13446114  0.40165564  0.44292918    -0.06700
C950        C  0.13018385  0.35422510  0.44198426     0.14100
C951        C  0.09500998  0.32958741  0.46894008    -0.23600
H952        H  0.15443038  0.29306481  0.41203710     0.15400
H953        H  0.17537574  0.45792579  0.42248066     0.15400
C954        C  0.23710582  0.42000830  0.36809200    -0.23500
H955        H  0.09997670  0.29259854  0.46744204     0.05600
H956        H  0.06070198  0.33653171  0.45583000     0.08900
H957        H  0.09720628  0.33995942  0.50450173     0.08900
H958        H  0.23180373  0.41540211  0.33168331     0.08900
H959        H  0.27049086  0.40604889  0.37765831     0.08900
H960        H  0.23764110  0.45666798  0.37520258     0.05600
C961        C  0.81676104  0.61804649  0.62773850    -0.20200
C962        C  0.82913992  0.66330271  0.63309328    -0.06700
C963        C  0.86517624  0.68063519  0.60698884     0.14100
C964        C  0.88921809  0.65178976  0.57835598    -0.20200
C965        C  0.87921625  0.60587893  0.57594829    -0.06700
C966        C  0.84183968  0.58895939  0.60002141     0.14100
C967        C  0.82859158  0.54017242  0.59673113    -0.23600
H968        H  0.78902119  0.60477536  0.64724896     0.15400
H969        H  0.91788296  0.66460615  0.55983960     0.15400
C970        C  0.87889747  0.72945314  0.60919808    -0.23500
H971        H  0.79767266  0.53288075  0.61639771     0.05600
H972        H  0.85612223  0.51852867  0.60966575     0.08900
H973        H  0.82177175  0.53130822  0.56134362     0.08900
H974        H  0.89344408  0.73754823  0.64237204     0.08900
H975        H  0.84913674  0.75118960  0.60276589     0.08900
H976        H  0.90504051  0.73761742  0.58391188     0.05600
C977        C  0.15036275  0.55760255  0.63845925    -0.20200
C978        C  0.10328371  0.56320155  0.63818948    -0.06700
C979        C  0.08317800  0.59321532  0.66908376     0.14100
C980        C  0.11093421  0.61923097  0.69681738    -0.20200
C981        C  0.15820855  0.61637624  0.69458393    -0.06700
C982        C  0.17818147  0.58353265  0.66643525     0.14100
C983        C  0.22863847  0.57720589  0.66355569    -0.23600
H984        H  0.16561107  0.53404766  0.61522178     0.15400
H985        H  0.09555324  0.64369206  0.71901918     0.15400
C986        C  0.03278166  0.60053452  0.67105506    -0.23500
H987        H  0.23799049  0.55066280  0.63908663     0.05600
H988        H  0.24207886  0.56688123  0.69655690     0.08900
H989        H  0.24499394  0.60895263  0.65283605     0.08900
H990        H  0.01565868  0.56889129  0.68082512     0.08900
H991        H  0.02012617  0.61177098  0.63803091     0.08900
H992        H  0.02339440  0.62661028  0.69599732     0.05600
C993        C  0.95578451  0.35931573  0.63726954    -0.20200
C994        C  0.94201374  0.36663368  0.59311103    -0.06700
C995        C  0.90522592  0.34202314  0.57570303     0.14100
C996        C  0.88059264  0.31400564  0.60425325    -0.20200
C997        C  0.89135151  0.31023416  0.64991009    -0.06700
C998        C  0.93124353  0.33122573  0.66593423     0.14100
C999        C  0.94728346  0.32643581  0.71344704    -0.23600
H1000       H  0.98474694  0.37756032  0.65004595     0.15400
H1001       H  0.85107005  0.29690926  0.59121893     0.15400
C1002       C  0.88964124  0.34754114  0.52808831    -0.23500
H1003       H  0.97942113  0.34475590  0.71939308     0.05600
H1004       H  0.95345670  0.29044424  0.72099405     0.08900
H1005       H  0.92176968  0.34044778  0.73678008     0.08900
H1006       H  0.91682858  0.33684901  0.50487834     0.08900
H1007       H  0.88078084  0.38321587  0.52171121     0.08900
H1008       H  0.85935465  0.32679048  0.52069177     0.05600
C1009       C  0.10340955  0.66226258  0.43096434    -0.20200
C1010       C  0.07081688  0.63565239  0.40962021    -0.06700
C1011       C  0.06440384  0.64006003  0.36312370     0.14100
C1012       C  0.09343630  0.66829705  0.33869383    -0.20200
C1013       C  0.12892842  0.69181221  0.35964795    -0.06700
C1014       C  0.13237950  0.69038282  0.40684142     0.14100
C1015       C  0.16653479  0.71797106  0.43239515    -0.23600
H1016       H  0.10755626  0.65945368  0.46680578     0.15400
H1017       H  0.09011517  0.66974171  0.30271328     0.15400
C1018       C  0.02907247  0.61298876  0.33883442    -0.23500
H1019       H  0.16087468  0.71608446  0.46899003     0.05600
H1020       H  0.16388332  0.75381804  0.42255199     0.08900
H1021       H  0.20121147  0.70541500  0.42605149     0.08900
H1022       H  0.99503822  0.62180523  0.35167768     0.08900
H1023       H  0.03526100  0.57654909  0.34387941     0.08900
H1024       H  0.02943341  0.61967852  0.30238708     0.05600
C1025       C  0.89616888  0.40042819  0.30991437    -0.20200
C1026       C  0.84970401  0.39594948  0.31802028    -0.06700
C1027       C  0.82931133  0.42292313  0.35154792     0.14100
C1028       C  0.85661465  0.45077478  0.37834673    -0.20200
C1029       C  0.90358978  0.45177606  0.37275737    -0.06700
C1030       C  0.92333035  0.42804186  0.33680991     0.14100
C1031       C  0.97321915  0.43122445  0.32721541    -0.23600
H1032       H  0.91166855  0.38056388  0.28368105     0.15400
H1033       H  0.84169844  0.46908375  0.40598556     0.15400
C1034       C  0.77953358  0.41997445  0.36167752    -0.23500
H1035       H  0.98262888  0.41202971  0.29674694     0.05600
H1036       H  0.99307160  0.41746427  0.35542971     0.08900
H1037       H  0.98265144  0.46693097  0.32193241     0.08900
H1038       H  0.77045158  0.38495074  0.37068990     0.08900
H1039       H  0.75970526  0.43062175  0.33210765     0.08900
H1040       H  0.76983153  0.44213158  0.38999972     0.05600
C1041       C  0.36582183  0.56236674  0.37210316    -0.20200
C1042       C  0.41305397  0.56681543  0.37065970    -0.06700
C1043       C  0.43248100  0.59448480  0.33717680     0.14100
C1044       C  0.40410115  0.62015239  0.30941489    -0.20200
C1045       C  0.35709074  0.61916226  0.31452459    -0.06700
C1046       C  0.33766077  0.58808369  0.34450728     0.14100
C1047       C  0.28713900  0.58232509  0.34791810    -0.23600
H1048       H  0.35069652  0.54009297  0.39642911     0.15400
H1049       H  0.41878520  0.64374137  0.28606409     0.15400
C1050       C  0.48285829  0.59974455  0.33225712    -0.23500
H1051       H  0.27794882  0.55476704  0.37112751     0.05600
H1052       H  0.27309491  0.57393632  0.31455343     0.08900
H1053       H  0.27106051  0.61352329  0.36054150     0.08900
H1054       H  0.49833823  0.56681498  0.32383608     0.08900
H1055       H  0.49758817  0.61293582  0.36375832     0.08900
H1056       H  0.49172786  0.62354671  0.30516018     0.05600
C1057       C  0.65709711  0.44110177  0.63051495    -0.20200
C1058       C  0.61003660  0.44012311  0.63542100    -0.06700
C1059       C  0.59096136  0.41362552  0.66972947     0.14100
C1060       C  0.61906895  0.38612111  0.69600641    -0.20200
C1061       C  0.66571861  0.38362307  0.68806556    -0.06700
C1062       C  0.68518003  0.41296158  0.65613507     0.14100
C1063       C  0.73553256  0.41464304  0.64871240    -0.23600
H1064       H  0.67171937  0.46184887  0.60461260     0.15400
H1065       H  0.60415349  0.36434199  0.72088008     0.15400
C1066       C  0.54081584  0.41390524  0.67826069    -0.23500
H1067       H  0.74500162  0.44143770  0.62474185     0.05600
H1068       H  0.74783874  0.38228612  0.63486358     0.08900
H1069       H  0.75292449  0.42175211  0.68079863     0.08900
H1070       H  0.52242320  0.40095251  0.64864011     0.08900
H1071       H  0.52949439  0.44875101  0.68551836     0.08900
H1072       H  0.53168527  0.39252834  0.70720717     0.05600
C1073       C  0.38566692  0.36127667  0.57538003    -0.20200
C1074       C  0.37902852  0.40792707  0.57193601    -0.06700
C1075       C  0.34201738  0.42786891  0.59480492     0.14100
C1076       C  0.31484382  0.40109051  0.62238491    -0.20200
C1077       C  0.32330739  0.35509300  0.62768473    -0.06700
C1078       C  0.35852592  0.33464777  0.60302201     0.14100
C1079       C  0.36981741  0.28543637  0.60790396    -0.23600
H1080       H  0.41352860  0.34571127  0.55770052     0.15400
H1081       H  0.28773907  0.41647719  0.64135038     0.15400
C1082       C  0.33198522  0.47753344  0.59261062    -0.23500
H1083       H  0.39972525  0.27574981  0.58767420     0.05600
H1084       H  0.34096563  0.26459985  0.59643732     0.08900
H1085       H  0.37749219  0.27772281  0.64334660     0.08900
H1086       H  0.32404767  0.48722822  0.55773980     0.08900
H1087       H  0.36140388  0.49705442  0.60499729     0.08900
H1088       H  0.30241748  0.48689515  0.61347469     0.05600
C1089       C  0.66213850  0.68301061  0.42358005    -0.20200
C1090       C  0.69415984  0.66299582  0.39509497    -0.06700
C1091       C  0.70147275  0.61601678  0.39775020     0.14100
C1092       C  0.67342608  0.58994918  0.42509587    -0.20200
C1093       C  0.63870480  0.60951364  0.45030424    -0.06700
C1094       C  0.63407419  0.65674845  0.45099454     0.14100
C1095       C  0.59754728  0.67918935  0.47806145    -0.23600
H1096       H  0.65682984  0.71903004  0.42207726     0.15400
H1097       H  0.67722927  0.55368881  0.42524214     0.15400
C1098       C  0.73861858  0.59297860  0.37190227    -0.23500
H1099       H  0.59800352  0.71628041  0.47400347     0.05600
H1100       H  0.60247469  0.67164895  0.51398767     0.08900
H1101       H  0.56390672  0.66672653  0.46728947     0.08900
H1102       H  0.77142937  0.60952140  0.37914971     0.08900
H1103       H  0.73166959  0.59420428  0.33558157     0.08900
H1104       H  0.74175229  0.55698401  0.38116162     0.05600
C1105       C  0.44789970  0.63247049  0.65176650    -0.20200
C1106       C  0.44177192  0.63445816  0.60538720    -0.06700
C1107       C  0.41109961  0.66635615  0.58763834     0.14100
C1108       C  0.38448893  0.69237598  0.61678890    -0.20200
C1109       C  0.38710764  0.68669632  0.66314302    -0.06700
C1110       C  0.42067743  0.65789922  0.68090689     0.14100
C1111       C  0.42779685  0.65369096  0.73054980    -0.23600
H1112       H  0.47201696  0.60877797  0.66537698     0.15400
H1113       H  0.35941968  0.71510038  0.60321943     0.15400
C1114       C  0.40604849  0.67299542  0.53800627    -0.23500
H1115       H  0.45711098  0.63180181  0.73843693     0.05600
H1116       H  0.39762711  0.63874076  0.74659843     0.08900
H1117       H  0.43437966  0.68739089  0.74518011     0.08900
H1118       H  0.39184689  0.64240973  0.52212446     0.08900
H1119       H  0.43947309  0.68066945  0.52307992     0.08900
H1120       H  0.38293190  0.70132569  0.53023075     0.05600
C1121       C  0.62436793  0.31016265  0.39486553    -0.20200
C1122       C  0.62568971  0.31909164  0.34891484    -0.06700
C1123       C  0.59603923  0.35171191  0.33105635     0.14100
C1124       C  0.56980517  0.37792762  0.36007529    -0.20200
C1125       C  0.57226509  0.37271033  0.40661154    -0.06700
C1126       C  0.59807536  0.33660418  0.42408147     0.14100
C1127       C  0.60040168  0.32728361  0.47342263    -0.23600
H1128       H  0.64643720  0.28449227  0.40837477     0.15400
H1129       H  0.54870647  0.40425880  0.34630101     0.15400
C1130       C  0.59196269  0.35932791  0.28142117    -0.23500
H1131       H  0.62275881  0.29829011  0.48095447     0.05600
H1132       H  0.56619733  0.31910130  0.48618065     0.08900
H1133       H  0.61394975  0.35707007  0.49135610     0.08900
H1134       H  0.58417703  0.32705868  0.26437827     0.08900
H1135       H  0.62368396  0.37350237  0.26779656     0.08900
H1136       H  0.56446158  0.38339921  0.27341091     0.05600
loop_ 
_geom_bond_atom_site_label_1 
_geom_bond_atom_site_label_2 
_geom_bond_distance 
_geom_bond_site_symmetry_2 
_ccdc_geom_bond_type 
O1           C17   1.276       .  A
O1           Zn7   2.016       .  S
C2           O18   1.276       .  A
C2           O15   1.275       .  A
C2         C1125   1.491       .  S
O3           C16   1.280       .  A
O3          Cd10   2.113       .  S
O4           C22   1.274       .  A
O4          Cd13   2.053       .  S
O5           C19   1.275       .  A
O5           Cd9   2.073       .  S
O6           C17   1.273       .  A
O6           Cd9   2.062       .  S
Zn7          O18   2.046       .  S
Zn7          O20   2.016       .  S
Zn7          O12   1.950       .  S
O8           C19   1.274       .  A
O8          Cd13   2.080       .  S
Cd9          O11   2.060       .  S
Cd9          O12   1.996       .  S
Cd10         O14   2.108       .  S
Cd10         O23   2.099       .  S
Cd10         O12   2.026       .  S
O11          C21   1.273       .  A
O12         Cd13   1.992       .  S
Cd13         O15   2.059       .  S
O14          C21   1.280       .  A
C16          O20   1.274       .  A
C16        C1058   1.485       .  S
C17        C1074   1.488       .  S
C19        C1042   1.492       .  S
C21        C1106   1.486       .  S
C22          O23   1.279       .  A
C22        C1093   1.477       .  S
O24          C40   1.272       .  A
O24         Zn30   2.004   1_455  S
C25          O41   1.273       .  A
C25          O38   1.272       .  A
C25         C994   1.476       .  S
O26          C39   1.278       .  A
O26         Cd33   2.100       .  S
O27          C45   1.273       .  A
O27         Cd36   2.060       .  S
O28          C42   1.274       .  A
O28         Cd32   2.062       .  S
O29          C40   1.273       .  A
O29         Cd32   2.070       .  S
Zn30         O41   2.019       .  S
Zn30         O43   1.995       .  S
Zn30         O35   1.933   1_655  S
O31          C42   1.272       .  A
O31         Cd36   2.063   1_455  S
Cd32         O34   2.052       .  S
Cd32         O35   1.996       .  S
Cd33         O37   2.102   1_655  S
Cd33         O46   2.106       .  S
Cd33         O35   2.023   1_655  S
O34          C44   1.274       .  A
O35         Cd36   1.990   1_455  S
Cd36         O38   2.053       .  S
O37          C44   1.279       .  A
C39          O43   1.272       .  A
C39        C1029   1.476       .  S
C40         C949   1.483       .  S
C42         C978   1.480       .  S
C44        C1010   1.480       .  S
C45          O46   1.280       .  A
C45         C965   1.481       .  S
O47          C63   1.272       .  A
O47         Zn53   2.011       .  S
C48          O64   1.274       .  A
C48          O61   1.272       .  A
C48         C882   1.478       .  S
O49          C62   1.282       .  A
O49         Cd56   2.124       .  S
O50          C68   1.272       .  A
O50         Cd59   2.039       .  S
O51          C65   1.273       .  A
O51         Cd55   2.066       .  S
O52          C63   1.273       .  A
O52         Cd55   2.056   1_556  S
Zn53         O64   2.020   1_556  S
Zn53         O66   2.006       .  S
Zn53         O58   1.939   1_556  S
O54          C65   1.273       .  A
O54         Cd59   2.077       .  S
Cd55         O57   2.044   1_554  S
Cd55         O58   1.989       .  S
Cd56         O60   2.113       .  S
Cd56         O69   2.109   1_556  S
Cd56         O58   2.032   1_556  S
O57          C67   1.273       .  A
O58         Cd59   1.992       .  S
Cd59         O61   2.056       .  S
O60          C67   1.280       .  A
C62          O66   1.272       .  A
C62         C914   1.497       .  S
C63         C850   1.484       .  S
C65         C866   1.485       .  S
C67         C930   1.492       .  S
C68          O69   1.280       .  A
C68         C898   1.475       .  S
O70          C86   1.274       .  A
O70         Zn76   2.035       .  S
C71          O87   1.272       .  A
C71          O84   1.275       .  A
C71         C802   1.493       .  S
O72          C85   1.276       .  A
O72         Cd79   2.089       .  S
O73          C91   1.273       .  A
O73         Cd82   2.053       .  S
O74          C88   1.274       .  A
O74         Cd78   2.068   1_565  S
O75          C86   1.274       .  A
O75         Cd78   2.060       .  S
Zn76         O87   2.011   1_545  S
Zn76         O89   1.985       .  S
Zn76         O81   1.931       .  S
O77          C88   1.274       .  A
O77         Cd82   2.059       .  S
Cd78         O80   2.056       .  S
Cd78         O81   1.987       .  S
Cd79         O83   2.091       .  S
Cd79         O92   2.090       .  S
Cd79         O81   2.025       .  S
O80          C90   1.273       .  A
O81         Cd82   1.995   1_545  S
Cd82         O84   2.079       .  S
O83          C90   1.277       .  A
C85          O89   1.272       .  A
C85         C786   1.473       .  S
C86         C821   1.492       .  S
C88         C834   1.483       .  S
C90         C754   1.476       .  S
C91          O92   1.277   1_565  A
C91         C773   1.479       .  S
O93         C109   1.272       .  A
O93         Zn99   2.012   1_455  S
C94         O110   1.272       .  A
C94         O107   1.273       .  A
C94         C722   1.476       .  S
O95         C108   1.278       .  A
O95        Cd102   2.101       .  S
O96         C114   1.273       .  A
O96        Cd105   2.056       .  S
O97         C111   1.274       .  A
O97        Cd101   2.065   1_556  S
O98         C109   1.273       .  A
O98        Cd101   2.069       .  S
Zn99        O110   2.012   1_554  S
Zn99        O112   1.990       .  S
Zn99        O104   1.931       .  S
O100        C111   1.273       .  A
O100       Cd105   2.069   1_455  S
Cd101       O103   2.039       .  S
Cd101       O104   1.990   1_455  S
Cd102       O106   2.099       .  S
Cd102       O115   2.096       .  S
Cd102       O104   2.028       .  S
O103        C113   1.271       .  A
O104       Cd105   1.992   1_554  S
Cd105       O107   2.057       .  S
O106        C113   1.278   1_655  A
C108        O112   1.272       .  A
C108        C709   1.477       .  S
C109        C658   1.486       .  S
C111        C690   1.483       .  S
C113        C677   1.478       .  S
C114        O115   1.278   1_556  A
C114        C738   1.474       .  S
O116        C132   1.275       .  A
O116       Zn122   2.010   1_455  S
C117        O133   1.273       .  A
C117        O130   1.271       .  A
C117        C642   1.484       .  S
O118        C131   1.280       .  A
O118       Cd125   2.112       .  S
O119        C137   1.272       .  A
O119       Cd128   2.036   1_655  S
O120        C134   1.275       .  A
O120       Cd124   2.088   1_565  S
O121        C132   1.273       .  A
O121       Cd124   2.061       .  S
Zn122       O133   2.009   1_545  S
Zn122       O135   2.008       .  S
Zn122       O127   1.937   1_655  S
O123        C134   1.273       .  A
O123       Cd128   2.062       .  S
Cd124       O126   2.049       .  S
Cd124       O127   1.994       .  S
Cd125       O129   2.102   1_655  S
Cd125       O138   2.105       .  S
Cd125       O127   2.029   1_655  S
O126        C136   1.273       .  A
O127       Cd128   1.985   1_545  S
Cd128       O130   2.056   1_455  S
O129        C136   1.279       .  A
C131        O135   1.273       .  A
C131        C610   1.488       .  S
C132        C578   1.485       .  S
C134        C629   1.488       .  S
C136        C565   1.476       .  S
C137        O138   1.279   1_565  A
C137        C594   1.480       .  S
O139        C155   1.274       .  A
O139       Zn145   2.031   1_565  S
C140        O156   1.275       .  A
C140        O153   1.274       .  A
C140        C530   1.493       .  S
O141        C154   1.277   1_554  A
O141       Cd148   2.092       .  S
O142        C160   1.274       .  A
O142       Cd151   2.061       .  S
O143        C157   1.274       .  A
O143       Cd147   2.065   1_545  S
O144        C155   1.273       .  A
O144       Cd147   2.055   1_556  S
Zn145       O156   2.021       .  S
Zn145       O158   1.986   1_545  S
Zn145       O150   1.940   1_556  S
O146        C157   1.275       .  A
O146       Cd151   2.066       .  S
Cd147       O149   2.062       .  S
Cd147       O150   1.991   1_565  S
Cd148       O152   2.110       .  S
Cd148       O161   2.098   1_565  S
Cd148       O150   2.025   1_565  S
O149        C159   1.274       .  A
O150       Cd151   1.998       .  S
Cd151       O153   2.079   1_554  S
O152        C159   1.280       .  A
C154        O158   1.271       .  A
C154        C517   1.476       .  S
C155        C549   1.485       .  S
C157        C482   1.481       .  S
C159        C501   1.488       .  S
C160        O161   1.279       .  A
C160        C466   1.482       .  S
O162        C178   1.277       .  A
O162       Zn168   2.035   1_465  S
C163        O179   1.275       .  A
C163        O176   1.272       .  A
C163        C373   1.480       .  S
O164        C177   1.279       .  A
O164       Cd171   2.101   1_554  S
O165        C183   1.272       .  A
O165       Cd174   2.049   1_655  S
O166        C180   1.273       .  A
O166       Cd170   2.076   1_546  S
O167        C178   1.272       .  A
O167       Cd170   2.056       .  S
Zn168       O179   2.023       .  S
Zn168       O181   2.020   1_545  S
Zn168       O173   1.947   1_655  S
O169        C180   1.274       .  A
O169       Cd174   2.060       .  S
Cd170       O172   2.047   1_554  S
Cd170       O173   1.994   1_565  S
Cd171       O175   2.099   1_655  S
Cd171       O184   2.111   1_565  S
Cd171       O173   2.027   1_666  S
O172        C182   1.272       .  A
O173       Cd174   1.985   1_554  S
Cd174       O176   2.056   1_456  S
O175        C182   1.279       .  A
C177        O181   1.276       .  A
C177        C450   1.490       .  S
C178        C389   1.487       .  S
C180        C402   1.488       .  S
C182        C421   1.479       .  S
C183        O184   1.280       .  A
C183        C434   1.485       .  S
O185        C201   1.274       .  A
O185       Zn191   2.029       .  S
C186        O202   1.273       .  A
C186        O199   1.275       .  A
C186       C1090   1.485       .  S
O187        C200   1.277       .  A
O187       Cd194   2.084       .  S
O188        C206   1.273       .  A
O188       Cd197   2.058       .  S
O189        C203   1.273       .  A
O189       Cd193   2.063       .  S
O190        C201   1.272       .  A
O190       Cd193   2.058       .  S
Zn191       O202   2.011       .  S
Zn191       O204   1.996       .  S
Zn191       O196   1.939       .  S
O192        C203   1.275       .  A
O192       Cd197   2.061       .  S
Cd193       O195   2.060       .  S
Cd193       O196   1.991       .  S
Cd194       O198   2.102       .  S
Cd194       O207   2.088       .  S
Cd194       O196   2.018       .  S
O195        C205   1.272       .  A
O196       Cd197   1.998       .  S
Cd197       O199   2.086       .  S
O198        C205   1.278       .  A
C200        O204   1.272       .  A
C200        C885   1.472       .  S
C201        C706   1.485       .  S
C203        C645   1.477       .  S
C205        C453   1.479       .  S
C206        O207   1.276       .  A
C206        C770   1.472       .  S
O208        C224   1.272       .  A
O208       Zn214   1.994       .  S
C209        O225   1.274       .  A
C209        O222   1.273       .  A
C209        C789   1.486       .  S
O210        C223   1.280       .  A
O210       Cd217   2.117       .  S
O211        C229   1.273       .  A
O211       Cd220   2.052       .  S
O212        C226   1.276       .  A
O212       Cd216   2.076       .  S
O213        C224   1.274       .  A
O213       Cd216   2.078       .  S
Zn214       O225   2.014       .  S
Zn214       O227   2.008       .  S
Zn214       O219   1.940       .  S
O215        C226   1.274       .  A
O215       Cd220   2.084       .  S
Cd216       O218   2.058       .  S
Cd216       O219   1.997       .  S
Cd217       O221   2.100       .  S
Cd217       O230   2.106       .  S
Cd217       O219   2.027       .  S
O218        C228   1.275       .  A
O219       Cd220   1.994       .  S
Cd220       O222   2.059       .  S
O221        C228   1.279       .  A
C223        O227   1.272       .  A
C223       C1061   1.490       .  S
C224        C997   1.490       .  S
C226        C437   1.495       .  S
C228        C741   1.487       .  S
C229        O230   1.280       .  A
C229        C533   1.482       .  S
O231        C247   1.274       .  A
O231       Zn237   2.007       .  S
C232        O248   1.273       .  A
C232        O245   1.272       .  A
C232        C853   1.478       .  S
O233        C246   1.276       .  A
O233       Cd240   2.088       .  S
O234        C252   1.273       .  A
O234       Cd243   2.062       .  S
O235        C249   1.275       .  A
O235       Cd239   2.060       .  S
O236        C247   1.273       .  A
O236       Cd239   2.079       .  S
Zn237       O248   2.014       .  S
Zn237       O250   1.995       .  S
Zn237       O242   1.934       .  S
O238        C249   1.274       .  A
O238       Cd243   2.071       .  S
Cd239       O241   2.059       .  S
Cd239       O242   1.996       .  S
Cd240       O244   2.096       .  S
Cd240       O253   2.104       .  S
Cd240       O242   2.020       .  S
O241        C251   1.274       .  A
O242       Cd243   1.995       .  S
Cd243       O245   2.059       .  S
O244        C251   1.278       .  A
C246        O250   1.272       .  A
C246        C546   1.475       .  S
C247        C418   1.489       .  S
C249        C981   1.484       .  S
C251        C626   1.477       .  S
C252        O253   1.279       .  A
C252       C1109   1.484       .  S
O254        C270   1.276       .  A
O254       Zn260   2.028       .  S
C255        O271   1.273       .  A
C255        O268   1.274       .  A
C255       C1077   1.477       .  S
O256        C269   1.277       .  A
O256       Cd263   2.094       .  S
O257        C275   1.273       .  A
O257       Cd266   2.059       .  S
O258        C272   1.273       .  A
O258       Cd262   2.053       .  S
O259        C270   1.272       .  A
O259       Cd262   2.066       .  S
Zn260       O271   2.013       .  S
Zn260       O273   2.000       .  S
Zn260       O265   1.935       .  S
O261        C272   1.275       .  A
O261       Cd266   2.083       .  S
Cd262       O264   2.041       .  S
Cd262       O265   1.985       .  S
Cd263       O267   2.096       .  S
Cd263       O276   2.094       .  S
Cd263       O265   2.024       .  S
O264        C274   1.271       .  A
O265       Cd266   1.999       .  S
Cd266       O268   2.061       .  S
O267        C274   1.277       .  A
C269        O273   1.272       .  A
C269        C818   1.481       .  S
C270        C562   1.488       .  S
C272        C693   1.486       .  S
C274        C405   1.475       .  S
C275        O276   1.277       .  A
C275        C933   1.473       .  S
O277        C293   1.275       .  A
O277       Zn283   2.028       .  S
C278        O294   1.275       .  A
C278        O291   1.272       .  A
C278        C837   1.482       .  S
O279        C292   1.280       .  A
O279       Cd286   2.112       .  S
O280        C298   1.271       .  A
O280       Cd289   2.041       .  S
O281        C295   1.275       .  A
O281       Cd285   2.086       .  S
O282        C293   1.273       .  A
O282       Cd285   2.059       .  S
Zn283       O294   2.012       .  S
Zn283       O296   2.007       .  S
Zn283       O288   1.941       .  S
O284        C295   1.271       .  A
O284       Cd289   2.056       .  S
Cd285       O287   2.048       .  S
Cd285       O288   1.998       .  S
Cd286       O290   2.098       .  S
Cd286       O299   2.110       .  S
Cd286       O288   2.027       .  S
O287        C297   1.273       .  A
O288       Cd289   1.987       .  S
Cd289       O291   2.063       .  S
O290        C297   1.279       .  A
C292        O296   1.273       .  A
C292        C498   1.486       .  S
C293        C386   1.483       .  S
C295       C1013   1.489       .  S
C297        C661   1.478       .  S
C298        O299   1.280       .  A
C298       C1045   1.479       .  S
O300        C316   1.274       .  A
O300       Zn306   2.029       .  S
C301        O317   1.276       .  A
C301        O314   1.273       .  A
C301        C901   1.484       .  S
O302        C315   1.278       .  A
O302       Cd309   2.100       .  S
O303        C321   1.272       .  A
O303       Cd312   2.054       .  S
O304        C318   1.274       .  A
O304       Cd308   2.078       .  S
O305        C316   1.275       .  A
O305       Cd308   2.067       .  S
Zn306       O317   2.027       .  S
Zn306       O319   1.997       .  S
Zn306       O311   1.942       .  S
O307        C318   1.274       .  A
O307       Cd312   2.056       .  S
Cd308       O310   2.062       .  S
Cd308       O311   1.998       .  S
Cd309       O313   2.112       .  S
Cd309       O322   2.106       .  S
Cd309       O311   2.026       .  S
O310        C320   1.274       .  A
O311       Cd312   1.994       .  S
Cd312       O314   2.069       .  S
O313        C320   1.281       .  A
C315        O319   1.272       .  A
C315       C1122   1.482       .  S
C316       C1026   1.484       .  S
C318        C370   1.488       .  S
C320        C613   1.484       .  S
C321        O322   1.279       .  A
C321        C469   1.481       .  S
O323        C339   1.274       .  A
O323       Zn329   2.021       .  S
C324        O340   1.274       .  A
C324        O337   1.273       .  A
C324        C485   1.484       .  S
O325        C338   1.276       .  A
O325       Cd332   2.089       .  S
O326        C344   1.273       .  A
O326       Cd335   2.055       .  S
O327        C341   1.272       .  A
O327       Cd331   2.076       .  S
O328        C339   1.271       .  A
O328       Cd331   2.045       .  S
Zn329       O340   2.004       .  S
Zn329       O342   2.005       .  S
Zn329       O334   1.938       .  S
O330        C341   1.275       .  A
O330       Cd335   2.062       .  S
Cd331       O333   2.043       .  S
Cd331       O334   1.989       .  S
Cd332       O336   2.089       .  S
Cd332       O345   2.089       .  S
Cd332       O334   2.020       .  S
O333        C343   1.273       .  A
O334       Cd335   1.987       .  S
Cd335       O337   2.065       .  S
O336        C343   1.277       .  A
C338        O342   1.272       .  A
C338        C757   1.480       .  S
C339        C581   1.474       .  S
C341        C674   1.490       .  S
C343        C946   1.477       .  S
C344        O345   1.277       .  A
C344        C869   1.474       .  S
O346        C362   1.274       .  A
O346       Zn352   2.004       .  S
C347        O363   1.273       .  A
C347        O360   1.275       .  A
C347        C514   1.491       .  S
O348        C361   1.281       .  A
O348       Cd355   2.121       .  S
O349        C367   1.273       .  A
O349       Cd358   2.039       .  S
O350        C364   1.272       .  A
O350       Cd354   2.061       .  S
O351        C362   1.272       .  A
O351       Cd354   2.060       .  S
Zn352       O363   2.024       .  S
Zn352       O365   2.008       .  S
Zn352       O357   1.941       .  S
O353        C364   1.274       .  A
O353       Cd358   2.079       .  S
Cd354       O356   2.047       .  S
Cd354       O357   1.989       .  S
Cd355       O359   2.120       .  S
Cd355       O368   2.110       .  S
Cd355       O357   2.030       .  S
O356        C366   1.271       .  A
O357       Cd358   1.994       .  S
Cd358       O360   2.061       .  S
O359        C366   1.282       .  A
C361        O365   1.272       .  A
C361        C917   1.484       .  S
C362        C725   1.485       .  S
C364        C597   1.491       .  S
C366        C962   1.489       .  S
C367        O368   1.280       .  A
C367        C805   1.483       .  S
C369        C370   1.405       .  A
C369        C374   1.401       .  A
C369        H376   1.085       .  S
C370        C371   1.419       .  A
C371        C372   1.406       .  A
C371        C378   1.508       .  S
C372        C373   1.403       .  A
C372        H377   1.085       .  S
C373        C374   1.416       .  A
C374        C375   1.510       .  S
C375        H379   1.111       .  S
C375        H380   1.111       .  S
C375        H381   1.110       .  S
C378        H382   1.110       .  S
C378        H383   1.110       .  S
C378        H384   1.111       .  S
C385        C386   1.404       .  A
C385        C390   1.405       .  A
C385        H392   1.084       .  S
C386        C387   1.415       .  A
C387        C388   1.403       .  A
C387        C394   1.509       .  S
C388        C389   1.405       .  A
C388        H393   1.084       .  S
C389        C390   1.419       .  A
C390        C391   1.509       .  S
C391        H395   1.111       .  S
C391        H396   1.110   1_565  S
C391        H397   1.109       .  S
C394        H398   1.110       .  S
C394        H399   1.108       .  S
C394        H400   1.111       .  S
C401        C402   1.405       .  A
C401        C406   1.399       .  A
C401        H408   1.084       .  S
C402        C403   1.421       .  A
C403        C404   1.408       .  A
C403        C410   1.507       .  S
C404        C405   1.402       .  A
C404        H409   1.084       .  S
C405        C406   1.413       .  A
C406        C407   1.510       .  S
C407        H411   1.111       .  S
C407        H412   1.109       .  S
C407        H413   1.110       .  S
C410        H414   1.110       .  S
C410        H415   1.110       .  S
C410        H416   1.111       .  S
C417        C418   1.405       .  A
C417        C422   1.401       .  A
C417        H424   1.084       .  S
C418        C419   1.420       .  A
C419        C420   1.408       .  A
C419        C426   1.507       .  S
C420        C421   1.402       .  A
C420        H425   1.084       .  S
C421        C422   1.414       .  A
C422        C423   1.510       .  S
C423        H427   1.111       .  S
C423        H428   1.110   1_556  S
C423        H429   1.109       .  S
C426        H430   1.110       .  S
C426        H431   1.110       .  S
C426        H432   1.111       .  S
C433        C434   1.403       .  A
C433        C438   1.410       .  A
C433        H440   1.084       .  S
C434        C435   1.416       .  A
C435        C436   1.403       .  A
C435        C442   1.510       .  S
C436        C437   1.406       .  A
C436        H441   1.084       .  S
C437        C438   1.422       .  A
C438        C439   1.508       .  S
C439        H443   1.111       .  S
C439        H444   1.110       .  S
C439        H445   1.110       .  S
C442        H446   1.110   1_655  S
C442        H447   1.109   1_655  S
C442        H448   1.111       .  S
C449        C450   1.407       .  A
C449        C454   1.405       .  A
C449        H456   1.084       .  S
C450        C451   1.417       .  A
C451        C452   1.410       .  A
C451        C458   1.507       .  S
C452        C453   1.404       .  A
C452        H457   1.084       .  S
C453        C454   1.411       .  A
C454        C455   1.507       .  S
C455        H459   1.111       .  S
C455        H460   1.111       .  S
C455        H461   1.110       .  S
C458        H462   1.110       .  S
C458        H463   1.110   1_554  S
C458        H464   1.111       .  S
C465        C466   1.406       .  A
C465        C470   1.407       .  A
C465        H472   1.083       .  S
C466        C467   1.414       .  A
C467        C468   1.407       .  A
C467        C474   1.507       .  S
C468        C469   1.405       .  A
C468        H473   1.083       .  S
C469        C470   1.413       .  A
C470        C471   1.507       .  S
C471        H475   1.111       .  S
C471        H476   1.111       .  S
C471        H477   1.110       .  S
C474        H478   1.111       .  S
C474        H479   1.110       .  S
C474        H480   1.111       .  S
C481        C482   1.404       .  A
C481        C486   1.404       .  A
C481        H488   1.084       .  S
C482        C483   1.417       .  A
C483        C484   1.401       .  A
C483        C490   1.509       .  S
C484        C485   1.404       .  A
C484        H489   1.084       .  S
C485        C486   1.418       .  A
C486        C487   1.508       .  S
C487        H491   1.111       .  S
C487        H492   1.110       .  S
C487        H493   1.110       .  S
C490        H494   1.111       .  S
C490        H495   1.110       .  S
C490        H496   1.111       .  S
C497        C498   1.406       .  A
C497        C502   1.408       .  A
C497        H504   1.084       .  S
C498        C499   1.413       .  A
C499        C500   1.408       .  A
C499        C506   1.507       .  S
C500        C501   1.408       .  A
C500        H505   1.084       .  S
C501        C502   1.414       .  A
C502        C503   1.507       .  S
C503        H507   1.111       .  S
C503        H508   1.110       .  S
C503        H509   1.110       .  S
C506        H510   1.110       .  S
C506        H511   1.110       .  S
C506        H512   1.111       .  S
C513        C514   1.406       .  A
C513        C518   1.400       .  A
C513        H520   1.084       .  S
C514        C515   1.422       .  A
C515        C516   1.407       .  A
C515        C522   1.508       .  S
C516        C517   1.400       .  A
C516        H521   1.084       .  S
C517        C518   1.414       .  A
C518        C519   1.510       .  S
C519        H523   1.111       .  S
C519        H524   1.110   1_565  S
C519        H525   1.109       .  S
C522        H526   1.110       .  S
C522        H527   1.110       .  S
C522        H528   1.111       .  S
C529        C530   1.406       .  A
C529        C534   1.404       .  A
C529        H536   1.084       .  S
C530        C531   1.422       .  A
C531        C532   1.408       .  A
C531        C538   1.508       .  S
C532        C533   1.402       .  A
C532        H537   1.084       .  S
C533        C534   1.415       .  A
C534        C535   1.509       .  S
C535        H539   1.111       .  S
C535        H540   1.109       .  S
C535        H541   1.110       .  S
C538        H542   1.111       .  S
C538        H543   1.110       .  S
C538        H544   1.111       .  S
C545        C546   1.401       .  A
C545        C550   1.407       .  A
C545        H552   1.084       .  S
C546        C547   1.413       .  A
C547        C548   1.401       .  A
C547        C554   1.509       .  S
C548        C549   1.405       .  A
C548        H553   1.084       .  S
C549        C550   1.419       .  A
C550        C551   1.508       .  S
C551        H555   1.111       .  S
C551        H556   1.111       .  S
C551        H557   1.110       .  S
C554        H558   1.109       .  S
C554        H559   1.110       .  S
C554        H560   1.111       .  S
C561        C562   1.405       .  A
C561        C566   1.403       .  A
C561        H568   1.084       .  S
C562        C563   1.421       .  A
C563        C564   1.407       .  A
C563        C570   1.508       .  S
C564        C565   1.401       .  A
C564        H569   1.084       .  S
C565        C566   1.413       .  A
C566        C567   1.508       .  S
C567        H571   1.111       .  S
C567        H572   1.111       .  S
C567        H573   1.109       .  S
C570        H574   1.110       .  S
C570        H575   1.110       .  S
C570        H576   1.111       .  S
C577        C578   1.407       .  A
C577        C582   1.400       .  A
C577        H584   1.083       .  S
C578        C579   1.419       .  A
C579        C580   1.403       .  A
C579        C586   1.509       .  S
C580        C581   1.402       .  A
C580        H585   1.084       .  S
C581        C582   1.412       .  A
C582        C583   1.509       .  S
C583        H587   1.111       .  S
C583        H588   1.110       .  S
C583        H589   1.108       .  S
C586        H590   1.110       .  S
C586        H591   1.109       .  S
C586        H592   1.111       .  S
C593        C594   1.403       .  A
C593        C598   1.400       .  A
C593        H600   1.085       .  S
C594        C595   1.411       .  A
C595        C596   1.408       .  A
C595        C602   1.506       .  S
C596        C597   1.411       .  A
C596        H601   1.084       .  S
C597        C598   1.419       .  A
C598        C599   1.510       .  S
C599        H603   1.111       .  S
C599        H604   1.109       .  S
C599        H605   1.110       .  S
C602        H606   1.110       .  S
C602        H607   1.110   1_565  S
C602        H608   1.111       .  S
C609        C610   1.403       .  A
C609        C614   1.409       .  A
C609        H616   1.084       .  S
C610        C611   1.419       .  A
C611        C612   1.407       .  A
C611        C618   1.508       .  S
C612        C613   1.401       .  A
C612        H617   1.084       .  S
C613        C614   1.416       .  A
C614        C615   1.508       .  S
C615        H619   1.111       .  S
C615        H620   1.110       .  S
C615        H621   1.109       .  S
C618        H622   1.110       .  S
C618        H623   1.109       .  S
C618        H624   1.111       .  S
C625        C626   1.402       .  A
C625        C630   1.408       .  A
C625        H632   1.084       .  S
C626        C627   1.411       .  A
C627        C628   1.404       .  A
C627        C634   1.508       .  S
C628        C629   1.406       .  A
C628        H633   1.084       .  S
C629        C630   1.419       .  A
C630        C631   1.508       .  S
C631        H635   1.111       .  S
C631        H636   1.111       .  S
C631        H637   1.110       .  S
C634        H638   1.109       .  S
C634        H639   1.110       .  S
C634        H640   1.111       .  S
C641        C642   1.406       .  A
C641        C646   1.403       .  A
C641        H648   1.084       .  S
C642        C643   1.420       .  A
C643        C644   1.402       .  A
C643        C650   1.509       .  S
C644        C645   1.401       .  A
C644        H649   1.084       .  S
C645        C646   1.415       .  A
C646        C647   1.509       .  S
C647        H651   1.111       .  S
C647        H652   1.111       .  S
C647        H653   1.110       .  S
C650        H654   1.110       .  S
C650        H655   1.110       .  S
C650        H656   1.111       .  S
C657        C658   1.407       .  A
C657        C662   1.405       .  A
C657        H664   1.084       .  S
C658        C659   1.418       .  A
C659        C660   1.403       .  A
C659        C666   1.509       .  S
C660        C661   1.403       .  A
C660        H665   1.085       .  S
C661        C662   1.412       .  A
C662        C663   1.507       .  S
C663        H667   1.111       .  S
C663        H668   1.111       .  S
C663        H669   1.110       .  S
C666        H670   1.109       .  S
C666        H671   1.110       .  S
C666        H672   1.111       .  S
C673        C674   1.405       .  A
C673        C678   1.398       .  A
C673        H680   1.084       .  S
C674        C675   1.422       .  A
C675        C676   1.410       .  A
C675        C682   1.507       .  S
C676        C677   1.403       .  A
C676        H681   1.084       .  S
C677        C678   1.414       .  A
C678        C679   1.511       .  S
C679        H683   1.111       .  S
C679        H684   1.108       .  S
C679        H685   1.110       .  S
C682        H686   1.110       .  S
C682        H687   1.111       .  S
C682        H688   1.111       .  S
C689        C690   1.405       .  A
C689        C694   1.406       .  A
C689        H696   1.085       .  S
C690        C691   1.416       .  A
C691        C692   1.402       .  A
C691        C698   1.509       .  S
C692        C693   1.405       .  A
C692        H697   1.085       .  S
C693        C694   1.417       .  A
C694        C695   1.508       .  S
C695        H699   1.111       .  S
C695        H700   1.110       .  S
C695        H701   1.110       .  S
C698        H702   1.110       .  S
C698        H703   1.111       .  S
C698        H704   1.111       .  S
C705        C706   1.408       .  A
C705        C710   1.407       .  A
C705        H712   1.084       .  S
C706        C707   1.417       .  A
C707        C708   1.402       .  A
C707        C714   1.509       .  S
C708        C709   1.402       .  A
C708        H713   1.084       .  S
C709        C710   1.411       .  A
C710        C711   1.506       .  S
C711        H715   1.111       .  S
C711        H716   1.110       .  S
C711        H717   1.110       .  S
C714        H718   1.110       .  S
C714        H719   1.109       .  S
C714        H720   1.111       .  S
C721        C722   1.402       .  A
C721        C726   1.403       .  A
C721        H728   1.084       .  S
C722        C723   1.414       .  A
C723        C724   1.401       .  A
C723        C730   1.509       .  S
C724        C725   1.406       .  A
C724        H729   1.084       .  S
C725        C726   1.420       .  A
C726        C727   1.509       .  S
C727        H731   1.111       .  S
C727        H732   1.110       .  S
C727        H733   1.110       .  S
C730        H734   1.110   1_556  S
C730        H735   1.111       .  S
C730        H736   1.111       .  S
C737        C738   1.403       .  A
C737        C742   1.409       .  A
C737        H744   1.085       .  S
C738        C739   1.409       .  A
C739        C740   1.402       .  A
C739        C746   1.508       .  S
C740        C741   1.407       .  A
C740        H745   1.085       .  S
C741        C742   1.417       .  A
C742        C743   1.506       .  S
C743        H747   1.111       .  S
C743        H748   1.110       .  S
C743        H749   1.110       .  S
C746        H750   1.110       .  S
C746        H751   1.111       .  S
C746        H752   1.111       .  S
C753        C754   1.401       .  A
C753        C758   1.405       .  A
C753        H760   1.084       .  S
C754        C755   1.414       .  A
C755        C756   1.405       .  A
C755        C762   1.508       .  S
C756        C757   1.403       .  A
C756        H761   1.084       .  S
C757        C758   1.417       .  A
C758        C759   1.508       .  S
C759        H763   1.111       .  S
C759        H764   1.110       .  S
C759        H765   1.109       .  S
C762        H766   1.110       .  S
C762        H767   1.109       .  S
C762        H768   1.111       .  S
C769        C770   1.403       .  A
C769        C774   1.406       .  A
C769        H776   1.084       .  S
C770        C771   1.410       .  A
C771        C772   1.403       .  A
C771        C778   1.507       .  S
C772        C773   1.406       .  A
C772        H777   1.084       .  S
C773        C774   1.414       .  A
C774        C775   1.507       .  S
C775        H779   1.111       .  S
C775        H780   1.110       .  S
C775        H781   1.110   1_565  S
C778        H782   1.110       .  S
C778        H783   1.110       .  S
C778        H784   1.111       .  S
C785        C786   1.402       .  A
C785        C790   1.400       .  A
C785        H792   1.084       .  S
C786        C787   1.409       .  A
C787        C788   1.405       .  A
C787        C794   1.507       .  S
C788        C789   1.410       .  A
C788        H793   1.083       .  S
C789        C790   1.418       .  A
C790        C791   1.510       .  S
C791        H795   1.111       .  S
C791        H796   1.109       .  S
C791        H797   1.111       .  S
C794        H798   1.110       .  S
C794        H799   1.110       .  S
C794        H800   1.111       .  S
C801        C802   1.411       .  A
C801        C806   1.409       .  A
C801        H808   1.084       .  S
C802        C803   1.420       .  A
C803        C804   1.401       .  A
C803        C810   1.510       .  S
C804        C805   1.403       .  A
C804        H809   1.085       .  S
C805        C806   1.412       .  A
C806        C807   1.507       .  S
C807        H811   1.111       .  S
C807        H812   1.110       .  S
C807        H813   1.110       .  S
C810        H814   1.110       .  S
C810        H815   1.110       .  S
C810        H816   1.111       .  S
C817        C818   1.403       .  A
C817        C822   1.409       .  A
C817        H824   1.084       .  S
C818        C819   1.414       .  A
C819        C820   1.402       .  A
C819        C826   1.510       .  S
C820        C821   1.406       .  A
C820        H825   1.084       .  S
C821        C822   1.421       .  A
C822        C823   1.508       .  S
C823        H827   1.111       .  S
C823        H828   1.110       .  S
C823        H829   1.110       .  S
C826        H830   1.109       .  S
C826        H831   1.110       .  S
C826        H832   1.111       .  S
C833        C834   1.405       .  A
C833        C838   1.403       .  A
C833        H840   1.085       .  S
C834        C835   1.418       .  A
C835        C836   1.402       .  A
C835        C842   1.509       .  S
C836        C837   1.403       .  A
C836        H841   1.085       .  S
C837        C838   1.417       .  A
C838        C839   1.509       .  S
C839        H843   1.111       .  S
C839        H844   1.110       .  S
C839        H845   1.110       .  S
C842        H846   1.110       .  S
C842        H847   1.110       .  S
C842        H848   1.111       .  S
C849        C850   1.407       .  A
C849        C854   1.401       .  A
C849        H856   1.084       .  S
C850        C851   1.418       .  A
C851        C852   1.403       .  A
C851        C858   1.509       .  S
C852        C853   1.404       .  A
C852        H857   1.085       .  S
C853        C854   1.413       .  A
C854        C855   1.509       .  S
C855        H859   1.111       .  S
C855        H860   1.108       .  S
C855        H861   1.110       .  S
C858        H862   1.109       .  S
C858        H863   1.110   1_556  S
C858        H864   1.111       .  S
C865        C866   1.405       .  A
C865        C870   1.403       .  A
C865        H872   1.084       .  S
C866        C867   1.419       .  A
C867        C868   1.406       .  A
C867        C874   1.508       .  S
C868        C869   1.401       .  A
C868        H873   1.084       .  S
C869        C870   1.412       .  A
C870        C871   1.508       .  S
C871        H875   1.111       .  S
C871        H876   1.111       .  S
C871        H877   1.109       .  S
C874        H878   1.110       .  S
C874        H879   1.111       .  S
C874        H880   1.111       .  S
C881        C882   1.405       .  A
C881        C886   1.402       .  A
C881        H888   1.084       .  S
C882        C883   1.415       .  A
C883        C884   1.403       .  A
C883        C890   1.509       .  S
C884        C885   1.403       .  A
C884        H889   1.084       .  S
C885        C886   1.411       .  A
C886        C887   1.507       .  S
C887        H891   1.111       .  S
C887        H892   1.111       .  S
C887        H893   1.110       .  S
C890        H894   1.109       .  S
C890        H895   1.110       .  S
C890        H896   1.111       .  S
C897        C898   1.401       .  A
C897        C902   1.407       .  A
C897        H904   1.084       .  S
C898        C899   1.414       .  A
C899        C900   1.403       .  A
C899        C906   1.508       .  S
C900        C901   1.404       .  A
C900        H905   1.084       .  S
C901        C902   1.420       .  A
C902        C903   1.508       .  S
C903        H907   1.111       .  S
C903        H908   1.111       .  S
C903        H909   1.110       .  S
C906        H910   1.109       .  S
C906        H911   1.110       .  S
C906        H912   1.111       .  S
C913        C914   1.407       .  A
C913        C918   1.411       .  A
C913        H920   1.083       .  S
C914        C915   1.423       .  A
C915        C916   1.408       .  A
C915        C922   1.510       .  S
C916        C917   1.400       .  A
C916        H921   1.084       .  S
C917        C918   1.413       .  A
C918        C919   1.506       .  S
C919        H923   1.111       .  S
C919        H924   1.110       .  S
C919        H925   1.111       .  S
C922        H926   1.109       .  S
C922        H927   1.110       .  S
C922        H928   1.111       .  S
C929        C930   1.409       .  A
C929        C934   1.401       .  A
C929        H936   1.084       .  S
C930        C931   1.418       .  A
C931        C932   1.411       .  A
C931        C938   1.506       .  S
C932        C933   1.404       .  A
C932        H937   1.084       .  S
C933        C934   1.407       .  A
C934        C935   1.509       .  S
C935        H939   1.111       .  S
C935        H940   1.110       .  S
C935        H941   1.111       .  S
C938        H942   1.110       .  S
C938        H943   1.110       .  S
C938        H944   1.111       .  S
C945        C946   1.403       .  A
C945        C950   1.400       .  A
C945        H952   1.085       .  S
C946        C947   1.412       .  A
C947        C948   1.405       .  A
C947        C954   1.507       .  S
C948        C949   1.408       .  A
C948        H953   1.084       .  S
C949        C950   1.417       .  A
C950        C951   1.510       .  S
C951        H955   1.111       .  S
C951        H956   1.109       .  S
C951        H957   1.110       .  S
C954        H958   1.110       .  S
C954        H959   1.110       .  S
C954        H960   1.111       .  S
C961        C962   1.405       .  A
C961        C966   1.409       .  A
C961        H968   1.084       .  S
C962        C963   1.421       .  A
C963        C964   1.405       .  A
C963        C970   1.510       .  S
C964        C965   1.400       .  A
C964        H969   1.084       .  S
C965        C966   1.415       .  A
C966        C967   1.507       .  S
C967        H971   1.111       .  S
C967        H972   1.109       .  S
C967        H973   1.110       .  S
C970        H974   1.109       .  S
C970        H975   1.110       .  S
C970        H976   1.111       .  S
C977        C978   1.404       .  A
C977        C982   1.405       .  A
C977        H984   1.085       .  S
C978        C979   1.416       .  A
C979        C980   1.401       .  A
C979        C986   1.509       .  S
C980        C981   1.404       .  A
C980        H985   1.085       .  S
C981        C982   1.418       .  A
C982        C983   1.508       .  S
C983        H987   1.111       .  S
C983        H988   1.110       .  S
C983        H989   1.110       .  S
C986        H990   1.110       .  S
C986        H991   1.111       .  S
C986        H992   1.111       .  S
C993        C994   1.402       .  A
C993        C998   1.404       .  A
C993       H1000   1.084       .  S
C994        C995   1.412       .  A
C995        C996   1.402       .  A
C995       C1002   1.509       .  S
C996        C997   1.410       .  A
C996       H1001   1.084       .  S
C997        C998   1.419       .  A
C998        C999   1.508       .  S
C999       H1003   1.111       .  S
C999       H1004   1.110       .  S
C999       H1005   1.110       .  S
C1002      H1006   1.110       .  S
C1002      H1007   1.111       .  S
C1002      H1008   1.111       .  S
C1009      C1010   1.402       .  A
C1009      C1014   1.401       .  A
C1009      H1016   1.084       .  S
C1010      C1011   1.413       .  A
C1011      C1012   1.409       .  A
C1011      C1018   1.507       .  S
C1012      C1013   1.409       .  A
C1012      H1017   1.084       .  S
C1013      C1014   1.419       .  A
C1014      C1015   1.510       .  S
C1015      H1019   1.111       .  S
C1015      H1020   1.110       .  S
C1015      H1021   1.109       .  S
C1018      H1022   1.110   1_455  S
C1018      H1023   1.110       .  S
C1018      H1024   1.111       .  S
C1025      C1026   1.404       .  A
C1025      C1030   1.403       .  A
C1025      H1032   1.084       .  S
C1026      C1027   1.419       .  A
C1027      C1028   1.408       .  A
C1027      C1034   1.508       .  S
C1028      C1029   1.402       .  A
C1028      H1033   1.084       .  S
C1029      C1030   1.413       .  A
C1030      C1031   1.508       .  S
C1031      H1035   1.111       .  S
C1031      H1036   1.109       .  S
C1031      H1037   1.111       .  S
C1034      H1038   1.111       .  S
C1034      H1039   1.110       .  S
C1034      H1040   1.111       .  S
C1041      C1042   1.406       .  A
C1041      C1046   1.403       .  A
C1041      H1048   1.084       .  S
C1042      C1043   1.422       .  A
C1043      C1044   1.409       .  A
C1043      C1050   1.507       .  S
C1044      C1045   1.401       .  A
C1044      H1049   1.084       .  S
C1045      C1046   1.414       .  A
C1046      C1047   1.509       .  S
C1047      H1051   1.111       .  S
C1047      H1052   1.110       .  S
C1047      H1053   1.109       .  S
C1050      H1054   1.110       .  S
C1050      H1055   1.110       .  S
C1050      H1056   1.111       .  S
C1057      C1058   1.402       .  A
C1057      C1062   1.409       .  A
C1057      H1064   1.084       .  S
C1058      C1059   1.416       .  A
C1059      C1060   1.409       .  A
C1059      C1066   1.507       .  S
C1060      C1061   1.404       .  A
C1060      H1065   1.084       .  S
C1061      C1062   1.420       .  A
C1062      C1063   1.509       .  S
C1063      H1067   1.111       .  S
C1063      H1068   1.109       .  S
C1063      H1069   1.110       .  S
C1066      H1070   1.109       .  S
C1066      H1071   1.110       .  S
C1066      H1072   1.111       .  S
C1073      C1074   1.406       .  A
C1073      C1078   1.402       .  A
C1073      H1080   1.084       .  S
C1074      C1075   1.421       .  A
C1075      C1076   1.404       .  A
C1075      C1082   1.509       .  S
C1076      C1077   1.401       .  A
C1076      H1081   1.084       .  S
C1077      C1078   1.415       .  A
C1078      C1079   1.509       .  S
C1079      H1083   1.111       .  S
C1079      H1084   1.110       .  S
C1079      H1085   1.111       .  S
C1082      H1086   1.110       .  S
C1082      H1087   1.110       .  S
C1082      H1088   1.111       .  S
C1089      C1090   1.407       .  A
C1089      C1094   1.408       .  A
C1089      H1096   1.084       .  S
C1090      C1091   1.417       .  A
C1091      C1092   1.403       .  A
C1091      C1098   1.509       .  S
C1092      C1093   1.401       .  A
C1092      H1097   1.085       .  S
C1093      C1094   1.412       .  A
C1094      C1095   1.507       .  S
C1095      H1099   1.111       .  S
C1095      H1100   1.110       .  S
C1095      H1101   1.111       .  S
C1098      H1102   1.110       .  S
C1098      H1103   1.108       .  S
C1098      H1104   1.111       .  S
C1105      C1106   1.403       .  A
C1105      C1110   1.407       .  A
C1105      H1112   1.084       .  S
C1106      C1107   1.418       .  A
C1107      C1108   1.407       .  A
C1107      C1114   1.508       .  S
C1108      C1109   1.402       .  A
C1108      H1113   1.084       .  S
C1109      C1110   1.417       .  A
C1110      C1111   1.508       .  S
C1111      H1115   1.111       .  S
C1111      H1116   1.109       .  S
C1111      H1117   1.110       .  S
C1114      H1118   1.109       .  S
C1114      H1119   1.110       .  S
C1114      H1120   1.111       .  S
C1121      C1122   1.404       .  A
C1121      C1126   1.410       .  A
C1121      H1128   1.084       .  S
C1122      C1123   1.415       .  A
C1123      C1124   1.401       .  A
C1123      C1130   1.510       .  S
C1124      C1125   1.406       .  A
C1124      H1129   1.085       .  S
C1125      C1126   1.420       .  A
C1126      C1127   1.507       .  S
C1127      H1131   1.111       .  S
C1127      H1132   1.110       .  S
C1127      H1133   1.110       .  S
C1130      H1134   1.110       .  S
C1130      H1135   1.108       .  S
C1130      H1136   1.111       .  S
