geometry optimzed in LAMMPS
_audit_creation_date              2020-11-30 
_audit_creation_method            'lammps2cif' 
_symmetry_space_group_name_H-M    'P1' 
_symmetry_Int_Tables_number       1 
_symmetry_cell_setting            triclinic 
loop_ 
_symmetry_equiv_pos_as_xyz 
  x,y,z 
_cell_length_a                    57.76973699 
_cell_length_b                    44.388406417433295 
_cell_length_c                    39.11347472830599 
_cell_angle_alpha                 90.0052974589917 
_cell_angle_beta                  89.999589883039 
_cell_angle_gamma                 89.73523027301648 
loop_ 
_atom_site_label 
_atom_site_type_symbol 
_atom_site_fract_x 
_atom_site_fract_y 
_atom_site_fract_z 
_atom_site_charge 
C1          C  0.79944426  0.07662368  0.58197221     0.82800
N2          N  0.78529038  0.09819572  0.56896363    -0.75500
C3          C  0.77053695  0.09138404  0.54317212     0.85300
N4          N  0.76986758  0.06294980  0.53044733    -0.75400
C5          C  0.78400389  0.04135229  0.54357035     0.85400
N6          N  0.79876587  0.04818716  0.56935744    -0.77200
C7          C  0.79947265  0.07619887  0.96277312     0.82800
N8          N  0.79881785  0.04775758  0.97537244    -0.75500
C9          C  0.78408980  0.04090738  0.00119634     0.85300
N10         N  0.76996455  0.06249497  0.01437232    -0.75400
C11         C  0.77061094  0.09093403  0.00166351     0.85400
N12         N  0.78533019  0.09776008  0.97583571    -0.77200
N13         N  0.86747227  0.09787503  0.70264768    -0.24700
N14         N  0.84775834  0.09839927  0.71983457    -0.32600
C15         C  0.83003029  0.09605940  0.69780704     0.03600
C16         C  0.83907465  0.09406043  0.66532248     0.09700
C17         C  0.86279927  0.09517648  0.66908556    -0.03400
H18         H  0.81196276  0.09521582  0.70503738     0.10300
H19         H  0.87570432  0.09355055  0.64911350     0.11500
Cu20       Cu  0.84561342  0.10048578  0.77237685     0.44200
Cu21       Cu  0.89968142  0.09943742  0.72593349     0.42000
Cu22       Cu  0.89966655  0.09933141  0.81881942     0.43900
N23         N  0.84774470  0.09826362  0.82491276    -0.32100
N24         N  0.86745733  0.09770149  0.84210046    -0.26300
C25         C  0.86278276  0.09491499  0.87565218    -0.02400
C26         C  0.83905817  0.09378005  0.87940881     0.09800
C27         C  0.83001521  0.09586095  0.84692961     0.03600
H28         H  0.87568698  0.09324254  0.89562021     0.11200
H29         H  0.81194848  0.09503098  0.83969396     0.10300
N30         N  0.92949137  0.09945643  0.78930332    -0.33500
N31         N  0.92949722  0.09949485  0.75546808    -0.25700
C32         C  0.95151721  0.09923992  0.74426094    -0.00900
C33         C  0.96590617  0.09907059  0.77239858     0.07700
C34         C  0.95150743  0.09917586  0.80052577     0.05800
H35         H  0.95661648  0.09903199  0.71764703     0.10900
H36         H  0.95659737  0.09890711  0.82714213     0.09700
C37         C  0.79772317  0.42137403  0.46509094     0.82800
N38         N  0.78369359  0.39983877  0.47813404    -0.75500
C39         C  0.76959826  0.40639445  0.50487443     0.85300
N40         N  0.76944790  0.43453164  0.51847528    -0.75400
C41         C  0.78346913  0.45607218  0.50532961     0.85400
N42         N  0.79755935  0.44949833  0.47860532    -0.77200
C43         C  0.79791384  0.42091891  0.07960100     0.82800
N44         N  0.78389058  0.39937307  0.06655921    -0.75500
C45         C  0.76978291  0.40592117  0.03983111     0.85300
N46         N  0.76961228  0.43406174  0.02624480    -0.75400
C47         C  0.78362640  0.45561271  0.03938942     0.85400
N48         N  0.79772876  0.44904617  0.06610032    -0.77200
N49         N  0.86425645  0.40077009  0.34227850    -0.24700
N50         N  0.84467756  0.40355655  0.32502349    -0.32600
C51         C  0.82705839  0.40688264  0.34712440     0.03600
C52         C  0.83604694  0.40607730  0.37971398     0.09700
C53         C  0.85961880  0.40225975  0.37594694    -0.03400
H54         H  0.80911689  0.40997742  0.33992529     0.10300
H55         H  0.87246112  0.40099037  0.39603854     0.11500
Cu56       Cu  0.84267931  0.40346029  0.27239557     0.44200
Cu57       Cu  0.89625812  0.39584707  0.31899590     0.42000
Cu58       Cu  0.89632564  0.39575285  0.22598291     0.43900
N59         N  0.84475095  0.40341193  0.21977356    -0.32100
N60         N  0.86435421  0.40059236  0.20258471    -0.26300
C61         C  0.85976055  0.40198492  0.16889735    -0.02400
C62         C  0.83619140  0.40577271  0.16504977     0.09800
C63         C  0.82716010  0.40666296  0.19761112     0.03600
H64         H  0.87262969  0.40067001  0.14884755     0.11200
H65         H  0.80920770  0.40976525  0.20474879     0.10300
N66         N  0.92595573  0.39235219  0.25562381    -0.33500
N67         N  0.92593109  0.39238529  0.28945953    -0.25700
C68         C  0.94787516  0.39017722  0.30071329    -0.00900
C69         C  0.96223383  0.38867582  0.27260355     0.07700
C70         C  0.94791624  0.39012206  0.24444506     0.05800
H71         H  0.95294884  0.38985313  0.32733659     0.10900
H72         H  0.95302885  0.38974512  0.21783907     0.09700
C73         C  0.69799996  0.32666596  0.58090357     0.82800
N74         N  0.71205363  0.34831159  0.56815010    -0.75500
C75         C  0.72678071  0.34169608  0.54218200     0.85300
N76         N  0.72753897  0.31339488  0.52907146    -0.75400
C77         C  0.71350447  0.29173982  0.54193169     0.85400
N78         N  0.69877759  0.29836935  0.56788395    -0.77200
C79         C  0.69813725  0.32618963  0.96387783     0.82800
N80         N  0.71220832  0.34783130  0.97660357    -0.75500
C81         C  0.72694557  0.34121937  0.00255899     0.85300
N82         N  0.72769468  0.31292615  0.01568652    -0.75400
C83         C  0.71364255  0.29127517  0.00285518     0.85400
N84         N  0.69890593  0.29790093  0.97691508    -0.77200
N85         N  0.63033394  0.34484793  0.84221048    -0.24700
N86         N  0.65005584  0.34483045  0.82503824    -0.32600
C87         C  0.66777635  0.34286200  0.84716101     0.03600
C88         C  0.65871140  0.34167557  0.87968511     0.09700
C89         C  0.63498829  0.34287987  0.87584631    -0.03400
H90         H  0.68585710  0.34185409  0.83999770     0.10300
H91         H  0.62207226  0.34189966  0.89584476     0.11500
Cu92       Cu  0.65218917  0.34617385  0.77244265     0.44200
Cu93       Cu  0.59813843  0.34634727  0.81887464     0.42000
Cu94       Cu  0.59809859  0.34656328  0.72608420     0.43900
N95         N  0.65001388  0.34504015  0.71984425    -0.32100
N96         N  0.63028050  0.34513783  0.70270024    -0.26300
C97         C  0.63491200  0.34328497  0.66904875    -0.02400
C98         C  0.65863196  0.34207342  0.66517068     0.09800
C99         C  0.66771857  0.34313378  0.69768707     0.03600
H100        H  0.62198242  0.34237828  0.64906486     0.11200
H101        H  0.68580345  0.34207356  0.70482050     0.10300
N102        N  0.56828903  0.34606164  0.75558970    -0.33500
N103        N  0.56830442  0.34598127  0.78942126    -0.25700
C104        C  0.54630872  0.34505764  0.80065815    -0.00900
C105        C  0.53191426  0.34457761  0.77253763     0.07700
C106        C  0.54628269  0.34519116  0.74439103     0.05800
H107        H  0.54123805  0.34448415  0.82727594     0.10900
H108        H  0.54118743  0.34474328  0.71778093     0.09700
C109        C  0.70036500  0.17094847  0.08068233     0.82800
N110        N  0.71427363  0.14936109  0.06714453    -0.75500
C111        C  0.72831906  0.15603217  0.04045887     0.85300
N112        N  0.72853039  0.18435143  0.02736309    -0.75400
C113        C  0.71463203  0.20596413  0.04101010     0.85400
N114        N  0.70057937  0.19926301  0.06769244    -0.77200
C115        C  0.70028290  0.17135879  0.46417589     0.82800
N116        N  0.71419100  0.14978426  0.47773526    -0.75500
C117        C  0.72822449  0.15647474  0.50442909     0.85300
N118        N  0.72842522  0.18480132  0.51751107    -0.75400
C119        C  0.71452708  0.20640126  0.50384200     0.85400
N120        N  0.70048622  0.19968042  0.47715154    -0.77200
N121        N  0.63414962  0.14531453  0.34226002    -0.24700
N122        N  0.65365617  0.14848819  0.32496628    -0.32600
C123        C  0.67109372  0.15340110  0.34693455     0.03600
C124        C  0.66207692  0.15325006  0.37950210     0.09700
C125        C  0.63866564  0.14813696  0.37585793    -0.03400
H126        H  0.68891184  0.15719739  0.33963686     0.10300
H127        H  0.62584166  0.14690863  0.39596622     0.11500
Cu128      Cu  0.65578481  0.14719487  0.27243486     0.44200
Cu129      Cu  0.60239611  0.13815545  0.31898782     0.42000
Cu130      Cu  0.60242763  0.13795359  0.22585932     0.43900
N131        N  0.65368364  0.14832780  0.21989658    -0.32100
N132        N  0.63418871  0.14507665  0.20259330    -0.26300
C133        C  0.63871943  0.14781081  0.16899037    -0.02400
C134        C  0.66212840  0.15294704  0.16535329     0.09800
C135        C  0.67112801  0.15320414  0.19793001     0.03600
H136        H  0.62590662  0.14651279  0.14887401     0.11200
H137        H  0.68893877  0.15705136  0.20523395     0.10300
N138        N  0.57299060  0.13221482  0.25549750    -0.33500
N139        N  0.57297954  0.13229144  0.28933909    -0.25700
C140        C  0.55117697  0.12839215  0.30054409    -0.00900
C141        C  0.53693948  0.12571402  0.27241284     0.07700
C142        C  0.55119491  0.12826450  0.24428531     0.05800
H143        H  0.54609818  0.12777345  0.32715750     0.10900
H144        H  0.54613278  0.12752665  0.21766897     0.09700
C145        C  0.20077017  0.05261259  0.58090834     0.82800
N146        N  0.20107094  0.02426067  0.56801131    -0.75500
C147        C  0.21523025  0.01733812  0.54147193     0.85300
N148        N  0.22915409  0.03876894  0.52786625    -0.75400
C149        C  0.22886926  0.06712983  0.54085432     0.85400
N150        N  0.21471165  0.07402893  0.56741007    -0.77200
C151        C  0.20067492  0.05285785  0.96427102     0.82800
N152        N  0.20098291  0.02450225  0.97715142    -0.75500
C153        C  0.21515154  0.01757406  0.00367589     0.85300
N154        N  0.22907793  0.03900332  0.01728355    -0.75400
C155        C  0.22878674  0.06736792  0.00431144     0.85400
N156        N  0.21461948  0.07427259  0.97777034    -0.77200
N157        N  0.13401962  0.07805420  0.70255343    -0.24700
N158        N  0.15336517  0.07378283  0.71999339    -0.32600
C159        C  0.17088756  0.06886565  0.69811347     0.03600
C160        C  0.16210367  0.07016618  0.66543613     0.09700
C161        C  0.13872784  0.07595327  0.66893193    -0.03400
H162        H  0.18861734  0.06436934  0.70552966     0.10300
H163        H  0.12605936  0.07813452  0.64869747     0.11500
Cu164      Cu  0.15517626  0.07399742  0.77257081     0.44200
Cu165      Cu  0.10224796  0.08561249  0.72579514     0.42000
Cu166      Cu  0.10221117  0.08572131  0.81923948     0.43900
N167        N  0.15332060  0.07386983  0.82514502    -0.32100
N168        N  0.13396426  0.07818325  0.84254747    -0.26300
C169        C  0.13864909  0.07613771  0.87618069    -0.02400
C170        C  0.16202105  0.07034314  0.87972170     0.09800
C171        C  0.17082595  0.06897968  0.84706011     0.03600
H172        H  0.12596814  0.07836209  0.89639221     0.11200
H173        H  0.18855928  0.06446122  0.83967865     0.10300
N174        N  0.07270782  0.09043046  0.78940913    -0.33500
N175        N  0.07272125  0.09038827  0.75556013    -0.25700
C176        C  0.05079983  0.09317267  0.74433460    -0.00900
C177        C  0.03646050  0.09508416  0.77244614     0.07700
C178        C  0.05077728  0.09324333  0.80058816     0.05800
H179        H  0.04570852  0.09342375  0.71771803     0.10900
H180        H  0.04566439  0.09355990  0.82719464     0.09700
C181        C  0.19882852  0.39786864  0.08134673     0.82800
N182        N  0.21279181  0.37594089  0.06865595    -0.75500
C183        C  0.22743566  0.38216498  0.04253625     0.85300
N184        N  0.22820381  0.41037254  0.02918904    -0.75400
C185        C  0.21424980  0.43232126  0.04198620     0.85400
N186        N  0.19960119  0.42607286  0.06810282    -0.77200
C187        C  0.19886216  0.39756377  0.46391908     0.82800
N188        N  0.19965667  0.42578940  0.47710667    -0.75500
C189        C  0.21431040  0.43206398  0.50320943     0.85300
N190        N  0.22824714  0.41011932  0.51605070    -0.75400
C191        C  0.22745741  0.38189014  0.50276006     0.85400
N192        N  0.21280861  0.37563956  0.47665327    -0.77200
N193        N  0.13107324  0.38036599  0.34228197    -0.24700
N194        N  0.15078017  0.37841431  0.32519627    -0.32600
C195        C  0.16852566  0.37955950  0.34733461     0.03600
C196        C  0.15947638  0.38226595  0.37976312     0.09700
C197        C  0.13575533  0.38281494  0.37585383    -0.03400
H198        H  0.18662682  0.37911732  0.34022042     0.10300
H199        H  0.12287502  0.38537195  0.39574064     0.11500
Cu200      Cu  0.15290955  0.37605519  0.27262979     0.44200
Cu201      Cu  0.09888272  0.38091036  0.31898391     0.42000
Cu202      Cu  0.09887682  0.38107437  0.22630938     0.43900
N203        N  0.15077281  0.37856523  0.22007327    -0.32100
N204        N  0.13106378  0.38057841  0.20300220    -0.26300
C205        C  0.13574079  0.38311059  0.16943764    -0.02400
C206        C  0.15946062  0.38255320  0.16551723     0.09800
C207        C  0.16851495  0.37975296  0.19793189     0.03600
H208        H  0.12285781  0.38572280  0.14956431     0.11200
H209        H  0.18661738  0.37926953  0.20503621     0.10300
N210        N  0.06907344  0.38223873  0.25573950    -0.33500
N211        N  0.06907466  0.38217710  0.28956686    -0.25700
C212        C  0.04707686  0.38318943  0.30079432    -0.00900
C213        C  0.03270444  0.38389513  0.27265924     0.07700
C214        C  0.04707534  0.38329206  0.24451999     0.05800
H215        H  0.04198653  0.38345556  0.32741122     0.10900
H216        H  0.04198347  0.38365415  0.21790487     0.09700
C217        C  0.29803993  0.30111288  0.57986480     0.82800
N218        N  0.28397405  0.32274545  0.56679162    -0.75500
C219        C  0.27001754  0.31636400  0.53991229     0.85300
N220        N  0.27003746  0.28827887  0.52616962    -0.75400
C221        C  0.28410586  0.26662206  0.53933462     0.85400
N222        N  0.29806391  0.27303234  0.56622170    -0.77200
C223        C  0.29809654  0.30139038  0.96557464     0.82800
N224        N  0.28402860  0.32302569  0.97864271    -0.75500
C225        C  0.27003818  0.31663472  0.00548010     0.85300
N226        N  0.27002457  0.28853640  0.01918287    -0.75400
C227        C  0.28409468  0.26687682  0.00602191     0.85400
N228        N  0.29808625  0.27329734  0.97917755    -0.77200
N229        N  0.36377845  0.32394939  0.84237598    -0.24700
N230        N  0.34406614  0.32211381  0.82531792    -0.32600
C231        C  0.32659125  0.31840917  0.84755656     0.03600
C232        C  0.33582096  0.31796591  0.88001357     0.09700
C233        C  0.35937308  0.32145489  0.87602596    -0.03400
H234        H  0.30859652  0.31578515  0.84052109     0.10300
H235        H  0.37236857  0.32176727  0.89594367     0.11500
Cu236      Cu  0.34172345  0.32345434  0.77270906     0.44200
Cu237      Cu  0.39571540  0.32883917  0.81899621     0.42000
Cu238      Cu  0.39568357  0.32876148  0.72632872     0.43900
N239        N  0.34402955  0.32202459  0.72009944    -0.32100
N240        N  0.36373082  0.32383133  0.70300954    -0.26300
C241        C  0.35930456  0.32127507  0.66937161    -0.02400
C242        C  0.33575063  0.31777482  0.66542449     0.09800
C243        C  0.32654063  0.31827727  0.69789321     0.03600
H244        H  0.37228708  0.32155192  0.64943576     0.11200
H245        H  0.30855087  0.31566264  0.70495929     0.10300
N246        N  0.42535417  0.33278829  0.75572150    -0.33500
N247        N  0.42536610  0.33281725  0.78954940    -0.25700
C248        C  0.44726516  0.33565434  0.80075070    -0.00900
C249        C  0.46156316  0.33750317  0.77260182     0.07700
C250        C  0.44724515  0.33560593  0.74447953     0.05800
H251        H  0.45234826  0.33625366  0.82736281     0.10900
H252        H  0.45230892  0.33616020  0.71785947     0.09700
C253        C  0.30038963  0.14560372  0.46311623     0.82800
N254        N  0.29968480  0.17412510  0.47551046    -0.75500
C255        C  0.28488130  0.18129022  0.50119251     0.85300
N256        N  0.27072396  0.15994149  0.51442569    -0.75400
C257        C  0.27140916  0.13142243  0.50193220     0.85400
N258        N  0.28620900  0.12427444  0.47624116    -0.77200
C259        C  0.30030060  0.14580020  0.08211369     0.82800
N260        N  0.29960590  0.17432832  0.06974382    -0.75500
C261        C  0.28481136  0.18151188  0.04405810     0.85300
N262        N  0.27065354  0.16017423  0.03079703    -0.75400
C263        C  0.27132962  0.13164839  0.04326686     0.85400
N264        N  0.28612014  0.12448326  0.06896064    -0.77200
N265        N  0.36819237  0.12238125  0.20277134    -0.24700
N266        N  0.34851852  0.12344233  0.22002852    -0.32600
C267        C  0.33084181  0.12670965  0.19803050     0.03600
C268        C  0.33986917  0.12766326  0.16548241     0.09700
C269        C  0.36354180  0.12496079  0.16917918    -0.03400
H270        H  0.31283260  0.12879809  0.20530729     0.10300
H271        H  0.37644049  0.12538209  0.14912892     0.11500
Cu272      Cu  0.34640592  0.12192567  0.27258693     0.44200
Cu273      Cu  0.40034261  0.11884232  0.22605471     0.42000
Cu274      Cu  0.40039165  0.11890581  0.31901198     0.43900
N275        N  0.34856856  0.12344141  0.32514103    -0.32100
N276        N  0.36825801  0.12240659  0.34236115    -0.26300
C277        C  0.36363158  0.12495846  0.37596479    -0.02400
C278        C  0.33995853  0.12761456  0.37970597     0.09800
C279        C  0.33090667  0.12666363  0.34717348     0.03600
H280        H  0.37654505  0.12538117  0.39599354     0.11200
H281        H  0.31288819  0.12871322  0.33993110     0.10300
N282        N  0.43019003  0.11792208  0.28941582    -0.33500
N283        N  0.43017174  0.11789746  0.25557879    -0.25700
C284        C  0.45218536  0.11803094  0.24434066    -0.00900
C285        C  0.46660080  0.11807954  0.27245240     0.07700
C286        C  0.45221612  0.11807108  0.30059939     0.05800
H287        H  0.45726098  0.11851134  0.21772224     0.10900
H288        H  0.45732129  0.11858863  0.32720447     0.09700
C289        C  0.31535021  0.13849732  0.11001062    -0.10700
C290        C  0.32714145  0.13304382  0.13462439    -0.12200
C291        C  0.31544787  0.13832730  0.43521802    -0.10700
C292        C  0.32724293  0.13292372  0.41059248    -0.12200
C293        C  0.28392897  0.23701506  0.01997043    -0.10700
C294        C  0.28413757  0.21169145  0.03103791    -0.12200
C295        C  0.31227246  0.30788581  0.93651721    -0.10700
C296        C  0.32345289  0.31287233  0.91120884    -0.12200
C297        C  0.28397279  0.23677425  0.52534253    -0.10700
C298        C  0.28419792  0.21146109  0.51424106    -0.12200
C299        C  0.31219303  0.30760797  0.60894715    -0.10700
C300        C  0.32336775  0.31262333  0.63425409    -0.12200
C301        C  0.24238743  0.35874674  0.51580553    -0.10700
C302        C  0.25496963  0.33923167  0.52654151    -0.12200
C303        C  0.18401547  0.39124886  0.43555686    -0.10700
C304        C  0.17232261  0.38663367  0.41067040    -0.12200
C305        C  0.24238412  0.35901806  0.02953807    -0.10700
C306        C  0.25497944  0.33950188  0.01883260    -0.12200
C307        C  0.17230200  0.38695923  0.13461367    -0.10700
C308        C  0.18398800  0.39157964  0.10972229    -0.12200
C309        C  0.24369148  0.08998087  0.01824074    -0.10700
C310        C  0.25626842  0.10909522  0.02958583    -0.12200
C311        C  0.21541041  0.48754353  0.01715368    -0.10700
C312        C  0.21513060  0.46224765  0.02828952    -0.12200
C313        C  0.18616390  0.05989896  0.93567066    -0.10700
C314        C  0.17463295  0.06512132  0.91072326    -0.12200
C315        C  0.24377237  0.08974377  0.52692842    -0.10700
C316        C  0.25634916  0.10885959  0.51559036    -0.12200
C317        C  0.21548714  0.98730919  0.52798431    -0.10700
C318        C  0.21520330  0.46200733  0.51686177    -0.12200
C319        C  0.18626573  0.05965276  0.60951789    -0.10700
C320        C  0.17473378  0.06489710  0.63445965    -0.12200
C321        C  0.51222193  0.12221359  0.27240977    -0.10700
C322        C  0.49143105  0.11991901  0.27242229    -0.12200
C323        C  0.67452802  0.15900170  0.41047247    -0.10700
C324        C  0.68590563  0.16445344  0.43546105    -0.12200
C325        C  0.68597582  0.16406591  0.10939090    -0.10700
C326        C  0.67458881  0.15864565  0.13437859    -0.12200
C327        C  0.48631517  0.34039243  0.77257812    -0.10700
C328        C  0.50710859  0.34252266  0.77255797    -0.12200
C329        C  0.71451132  0.26127080  0.01635162    -0.10700
C330        C  0.71482224  0.23595989  0.02744639    -0.12200
C331        C  0.67149693  0.33741983  0.91071178    -0.10700
C332        C  0.68322413  0.33279783  0.93560560    -0.12200
C333        C  0.71438592  0.26172554  0.52845957    -0.10700
C334        C  0.71470710  0.23640574  0.51738660    -0.12200
C335        C  0.68310366  0.33327458  0.60919545    -0.10700
C336        C  0.67139354  0.33787514  0.63411239    -0.12200
C337        C  0.98704260  0.38672357  0.27264287    -0.10700
C338        C  0.00787616  0.38532465  0.27266026    -0.12200
C339        C  0.75471631  0.38322945  0.02647664    -0.10700
C340        C  0.74202150  0.36402307  0.01564072    -0.15000
C341        C  0.82360937  0.40988996  0.13382339    -0.10700
C342        C  0.81222755  0.41438448  0.10855636    -0.12200
C343        C  0.75453135  0.38370976  0.51823544    -0.10700
C344        C  0.74184305  0.36450216  0.52907938    -0.12200
C345        C  0.81203535  0.41482148  0.43613915    -0.10700
C346        C  0.82342871  0.41027985  0.41089386    -0.12200
C347        C  0.99077109  0.09816649  0.77240810    -0.10700
C348        C  0.01162711  0.09702047  0.77242241    -0.12200
C349        C  0.75563103  0.11378324  0.01525619    -0.10700
C350        C  0.74315215  0.13318700  0.02651212    -0.12200
C351        C  0.78344971  0.01080776  0.01442186    -0.10700
C352        C  0.78331767  0.48550008  0.02552461    -0.12200
C353        C  0.82626221  0.08851148  0.91018510    -0.10700
C354        C  0.81447793  0.08319444  0.93479717    -0.12200
C355        C  0.75554807  0.11424280  0.52962833    -0.10700
C356        C  0.74306262  0.13364409  0.51838806    -0.12200
C357        C  0.78318468  0.48595434  0.51921283    -0.10700
C358        C  0.78333815  0.01125785  0.53032991    -0.12200
C359        C  0.81447784  0.08359522  0.60992240    -0.10700
C360        C  0.82627712  0.08886730  0.63453138    -0.12200
C361        C  0.79944429  0.57662367  0.58197215     0.82800
N362        N  0.78529037  0.59819575  0.56896362    -0.75500
C363        C  0.77053697  0.59138411  0.54317209     0.85300
N364        N  0.76986758  0.56294985  0.53044734    -0.75400
C365        C  0.78400386  0.54135233  0.54357036     0.85400
N366        N  0.79876588  0.54818712  0.56935738    -0.77200
C367        C  0.79947265  0.57619886  0.96277306     0.82800
N368        N  0.79881789  0.54775755  0.97537234    -0.75500
C369        C  0.78408989  0.54090739  0.00119633     0.85300
N370        N  0.76996458  0.56249493  0.01437231    -0.75400
C371        C  0.77061095  0.59093399  0.00166355     0.85400
N372        N  0.78533015  0.59776006  0.97583568    -0.77200
N373        N  0.86747234  0.59787499  0.70264768    -0.24700
N374        N  0.84775846  0.59839917  0.71983455    -0.32600
C375        C  0.83003030  0.59605933  0.69780703     0.03600
C376        C  0.83907475  0.59406035  0.66532244     0.09700
C377        C  0.86279935  0.59517649  0.66908551    -0.03400
H378        H  0.81196342  0.59521574  0.70503710     0.10300
H379        H  0.87570435  0.59355101  0.64911345     0.11500
Cu380      Cu  0.84561341  0.60048583  0.77237685     0.44200
Cu381      Cu  0.89968145  0.59943731  0.72593351     0.42000
Cu382      Cu  0.89966653  0.59933130  0.81881941     0.43900
N383        N  0.84774470  0.59826368  0.82491278    -0.32100
N384        N  0.86745733  0.59770143  0.84210045    -0.26300
C385        C  0.86278275  0.59491507  0.87565218    -0.02400
C386        C  0.83905814  0.59378013  0.87940884     0.09800
C387        C  0.83001521  0.59586096  0.84692964     0.03600
H388        H  0.87568693  0.59324271  0.89562010     0.11200
H389        H  0.81194839  0.59503133  0.83969401     0.10300
N390        N  0.92949134  0.59945638  0.78930334    -0.33500
N391        N  0.92949723  0.59949482  0.75546810    -0.25700
C392        C  0.95151722  0.59923987  0.74426092    -0.00900
C393        C  0.96590616  0.59907055  0.77239857     0.07700
C394        C  0.95150741  0.59917581  0.80052579     0.05800
H395        H  0.95661650  0.59903151  0.71764706     0.10900
H396        H  0.95659738  0.59890689  0.82714201     0.09700
C397        C  0.79772321  0.92137401  0.46509093     0.82800
N398        N  0.78369360  0.89983878  0.47813401    -0.75500
C399        C  0.76959832  0.90639439  0.50487445     0.85300
N400        N  0.76944790  0.93453157  0.51847527    -0.75400
C401        C  0.78346920  0.95607207  0.50532966     0.85400
N402        N  0.79755938  0.94949833  0.47860529    -0.77200
C403        C  0.79791384  0.92091891  0.07960098     0.82800
N404        N  0.78389064  0.89937303  0.06655922    -0.75500
C405        C  0.76978294  0.90592117  0.03983117     0.85300
N406        N  0.76961229  0.93406176  0.02624484    -0.75400
C407        C  0.78362639  0.95561271  0.03938940     0.85400
N408        N  0.79772877  0.94904619  0.06610025    -0.77200
N409        N  0.86425641  0.90076999  0.34227848    -0.24700
N410        N  0.84467752  0.90355653  0.32502348    -0.32600
C411        C  0.82705837  0.90688267  0.34712438     0.03600
C412        C  0.83604693  0.90607728  0.37971397     0.09700
C413        C  0.85961878  0.90225967  0.37594692    -0.03400
H414        H  0.80911685  0.90997803  0.33992523     0.10300
H415        H  0.87246111  0.90099005  0.39603856     0.11500
Cu416      Cu  0.84267928  0.90346036  0.27239557     0.44200
Cu417      Cu  0.89625812  0.89584713  0.31899587     0.42000
Cu418      Cu  0.89632565  0.89575292  0.22598291     0.43900
N419        N  0.84475094  0.90341183  0.21977358    -0.32100
N420        N  0.86435422  0.90059228  0.20258474    -0.26300
C421        C  0.85976061  0.90198475  0.16889737    -0.02400
C422        C  0.83619144  0.90577253  0.16504973     0.09800
C423        C  0.82716014  0.90666282  0.19761111     0.03600
H424        H  0.87262985  0.90066966  0.14884750     0.11200
H425        H  0.80920763  0.90976522  0.20474887     0.10300
N426        N  0.92595571  0.89235230  0.25562377    -0.33500
N427        N  0.92593111  0.89238539  0.28945948    -0.25700
C428        C  0.94787518  0.89017729  0.30071330    -0.00900
C429        C  0.96223386  0.88867583  0.27260359     0.07700
C430        C  0.94791622  0.89012215  0.24444509     0.05800
H431        H  0.95294884  0.88985339  0.32733662     0.10900
H432        H  0.95302885  0.88974543  0.21783910     0.09700
C433        C  0.69799993  0.82666597  0.58090356     0.82800
N434        N  0.71205360  0.84831158  0.56815000    -0.75500
C435        C  0.72678072  0.84169608  0.54218196     0.85300
N436        N  0.72753896  0.81339487  0.52907148    -0.75400
C437        C  0.71350442  0.79173981  0.54193175     0.85400
N438        N  0.69877749  0.79836935  0.56788394    -0.77200
C439        C  0.69813720  0.82618970  0.96387782     0.82800
N440        N  0.71220831  0.84783132  0.97660353    -0.75500
C441        C  0.72694555  0.84121943  0.00255900     0.85300
N442        N  0.72769467  0.81292620  0.01568653    -0.75400
C443        C  0.71364252  0.79127524  0.00285518     0.85400
N444        N  0.69890594  0.79790099  0.97691501    -0.77200
N445        N  0.63033391  0.84484784  0.84221048    -0.24700
N446        N  0.65005581  0.84483034  0.82503823    -0.32600
C447        C  0.66777632  0.84286187  0.84716100     0.03600
C448        C  0.65871137  0.84167545  0.87968512     0.09700
C449        C  0.63498826  0.84287975  0.87584631    -0.03400
H450        H  0.68585708  0.84185410  0.83999771     0.10300
H451        H  0.62207222  0.84189941  0.89584478     0.11500
Cu452      Cu  0.65218914  0.84617393  0.77244265     0.44200
Cu453      Cu  0.59813839  0.84634734  0.81887463     0.42000
Cu454      Cu  0.59809859  0.84656335  0.72608422     0.43900
N455        N  0.65001387  0.84504026  0.71984422    -0.32100
N456        N  0.63028050  0.84513784  0.70270022    -0.26300
C457        C  0.63491205  0.84328496  0.66904874    -0.02400
C458        C  0.65863200  0.84207342  0.66517069     0.09800
C459        C  0.66771862  0.84313390  0.69768707     0.03600
H460        H  0.62198254  0.84237779  0.64906491     0.11200
H461        H  0.68580338  0.84207375  0.70482041     0.10300
N462        N  0.56828899  0.84606162  0.75558966    -0.33500
N463        N  0.56830437  0.84598134  0.78942122    -0.25700
C464        C  0.54630866  0.84505754  0.80065818    -0.00900
C465        C  0.53191423  0.84457759  0.77253764     0.07700
C466        C  0.54628263  0.84519116  0.74439107     0.05800
H467        H  0.54123797  0.84448439  0.82727575     0.10900
H468        H  0.54118724  0.84474343  0.71778090     0.09700
C469        C  0.70036501  0.67094842  0.08068236     0.82800
N470        N  0.71427368  0.64936103  0.06714458    -0.75500
C471        C  0.72831906  0.65603210  0.04045882     0.85300
N472        N  0.72853038  0.68435139  0.02736308    -0.75400
C473        C  0.71463199  0.70596407  0.04101009     0.85400
N474        N  0.70057939  0.69926299  0.06769250    -0.77200
C475        C  0.70028289  0.67135874  0.46417593     0.82800
N476        N  0.71419103  0.64978422  0.47773530    -0.75500
C477        C  0.72822451  0.65647472  0.50442911     0.85300
N478        N  0.72842520  0.68480133  0.51751102    -0.75400
C479        C  0.71452703  0.70640126  0.50384195     0.85400
N480        N  0.70048617  0.69968042  0.47715150    -0.77200
N481        N  0.63414969  0.64531451  0.34225994    -0.24700
N482        N  0.65365622  0.64848814  0.32496625    -0.32600
C483        C  0.67109383  0.65340109  0.34693450     0.03600
C484        C  0.66207704  0.65325008  0.37950201     0.09700
C485        C  0.63866571  0.64813697  0.37585793    -0.03400
H486        H  0.68891187  0.65719776  0.33963682     0.10300
H487        H  0.62584212  0.64690881  0.39596574     0.11500
Cu488      Cu  0.65578478  0.64719476  0.27243485     0.44200
Cu489      Cu  0.60239612  0.63815552  0.31898784     0.42000
Cu490      Cu  0.60242762  0.63795369  0.22585933     0.43900
N491        N  0.65368365  0.64832784  0.21989655    -0.32100
N492        N  0.63418871  0.64507673  0.20259331    -0.26300
C493        C  0.63871945  0.64781083  0.16899037    -0.02400
C494        C  0.66212843  0.65294708  0.16535328     0.09800
C495        C  0.67112805  0.65320412  0.19792996     0.03600
H496        H  0.62590667  0.64651282  0.14887411     0.11200
H497        H  0.68893875  0.65705150  0.20523380     0.10300
N498        N  0.57299061  0.63221480  0.25549750    -0.33500
N499        N  0.57297954  0.63229152  0.28933909    -0.25700
C500        C  0.55117697  0.62839217  0.30054410    -0.00900
C501        C  0.53693947  0.62571409  0.27241284     0.07700
C502        C  0.55119489  0.62826462  0.24428531     0.05800
H503        H  0.54609816  0.62777379  0.32715747     0.10900
H504        H  0.54613274  0.62752716  0.21766900     0.09700
C505        C  0.20077015  0.55261265  0.58090830     0.82800
N506        N  0.20107093  0.52426074  0.56801131    -0.75500
C507        C  0.21523021  0.51733819  0.54147192     0.85300
N508        N  0.22915411  0.53876894  0.52786623    -0.75400
C509        C  0.22886928  0.56712984  0.54085433     0.85400
N510        N  0.21471165  0.57402894  0.56741004    -0.77200
C511        C  0.20067497  0.55285781  0.96427097     0.82800
N512        N  0.20098293  0.52450224  0.97715137    -0.75500
C513        C  0.21515151  0.51757400  0.00367591     0.85300
N514        N  0.22907794  0.53900320  0.01728356    -0.75400
C515        C  0.22878679  0.56736781  0.00431143     0.85400
N516        N  0.21461948  0.57427254  0.97777036    -0.77200
N517        N  0.13401959  0.57805418  0.70255342    -0.24700
N518        N  0.15336515  0.57378293  0.71999338    -0.32600
C519        C  0.17088753  0.56886563  0.69811347     0.03600
C520        C  0.16210364  0.57016618  0.66543612     0.09700
C521        C  0.13872782  0.57595334  0.66893192    -0.03400
H522        H  0.18861730  0.56436936  0.70552964     0.10300
H523        H  0.12605935  0.57813497  0.64869742     0.11500
Cu524      Cu  0.15517624  0.57399749  0.77257081     0.44200
Cu525      Cu  0.10224796  0.58561259  0.72579512     0.42000
Cu526      Cu  0.10221114  0.58572140  0.81923948     0.43900
N527        N  0.15332057  0.57386982  0.82514500    -0.32100
N528        N  0.13396425  0.57818334  0.84254747    -0.26300
C529        C  0.13864908  0.57613775  0.87618069    -0.02400
C530        C  0.16202103  0.57034312  0.87972172     0.09800
C531        C  0.17082590  0.56897961  0.84706010     0.03600
H532        H  0.12596813  0.57836224  0.89639223     0.11200
H533        H  0.18855921  0.56446098  0.83967862     0.10300
N534        N  0.07270775  0.59043044  0.78940914    -0.33500
N535        N  0.07272121  0.59038827  0.75556008    -0.25700
C536        C  0.05079980  0.59317273  0.74433461    -0.00900
C537        C  0.03646051  0.59508414  0.77244615     0.07700
C538        C  0.05077721  0.59324318  0.80058816     0.05800
H539        H  0.04570834  0.59342404  0.71771786     0.10900
H540        H  0.04566417  0.59355965  0.82719491     0.09700
C541        C  0.19882855  0.89786870  0.08134677     0.82800
N542        N  0.21279184  0.87594094  0.06865596    -0.75500
C543        C  0.22743565  0.88216503  0.04253620     0.85300
N544        N  0.22820382  0.91037262  0.02918906    -0.75400
C545        C  0.21424983  0.93232133  0.04198628     0.85400
N546        N  0.19960119  0.92607290  0.06810285    -0.77200
C547        C  0.19886219  0.89756374  0.46391906     0.82800
N548        N  0.19965668  0.92578936  0.47710673    -0.75500
C549        C  0.21431043  0.93206390  0.50320945     0.85300
N550        N  0.22824721  0.91011926  0.51605068    -0.75400
C551        C  0.22745743  0.88189008  0.50276005     0.85400
N552        N  0.21280864  0.87563956  0.47665320    -0.77200
N553        N  0.13107323  0.88036597  0.34228196    -0.24700
N554        N  0.15078016  0.87841424  0.32519626    -0.32600
C555        C  0.16852564  0.87955953  0.34733459     0.03600
C556        C  0.15947638  0.88226582  0.37976313     0.09700
C557        C  0.13575532  0.88281483  0.37585384    -0.03400
H558        H  0.18662682  0.87911706  0.34022041     0.10300
H559        H  0.12287503  0.88537139  0.39574062     0.11500
Cu560      Cu  0.15290953  0.87605527  0.27262979     0.44200
Cu561      Cu  0.09888271  0.88091020  0.31898392     0.42000
Cu562      Cu  0.09887678  0.88107424  0.22630939     0.43900
N563        N  0.15077279  0.87856531  0.22007329    -0.32100
N564        N  0.13106376  0.88057836  0.20300221    -0.26300
C565        C  0.13574077  0.88311051  0.16943762    -0.02400
C566        C  0.15946061  0.88255321  0.16551721     0.09800
C567        C  0.16851493  0.87975301  0.19793189     0.03600
H568        H  0.12285782  0.88572218  0.14956430     0.11200
H569        H  0.18661734  0.87926994  0.20503622     0.10300
N570        N  0.06907340  0.88223868  0.25573951    -0.33500
N571        N  0.06907465  0.88217696  0.28956688    -0.25700
C572        C  0.04707687  0.88318934  0.30079432    -0.00900
C573        C  0.03270446  0.88389506  0.27265923     0.07700
C574        C  0.04707533  0.88329208  0.24451999     0.05800
H575        H  0.04198654  0.88345535  0.32741125     0.10900
H576        H  0.04198348  0.88365461  0.21790474     0.09700
C577        C  0.29803989  0.80111283  0.57986483     0.82800
N578        N  0.28397409  0.82274550  0.56679163    -0.75500
C579        C  0.27001758  0.81636405  0.53991232     0.85300
N580        N  0.27003747  0.78827890  0.52616968    -0.75400
C581        C  0.28410585  0.76662203  0.53933460     0.85400
N582        N  0.29806393  0.77303228  0.56622162    -0.77200
C583        C  0.29809648  0.80139046  0.96557465     0.82800
N584        N  0.28402858  0.82302582  0.97864273    -0.75500
C585        C  0.27003816  0.81663476  0.00548008     0.85300
N586        N  0.27002458  0.78853640  0.01918286    -0.75400
C587        C  0.28409467  0.76687682  0.00602194     0.85400
N588        N  0.29808624  0.77329741  0.97917762    -0.77200
N589        N  0.36377839  0.82394942  0.84237590    -0.24700
N590        N  0.34406611  0.82211380  0.82531786    -0.32600
C591        C  0.32659121  0.81840911  0.84755651     0.03600
C592        C  0.33582086  0.81796591  0.88001349     0.09700
C593        C  0.35937298  0.82145492  0.87602593    -0.03400
H594        H  0.30859649  0.81578493  0.84052104     0.10300
H595        H  0.37236811  0.82176760  0.89594338     0.11500
Cu596      Cu  0.34172342  0.82345440  0.77270906     0.44200
Cu597      Cu  0.39571540  0.82883907  0.81899620     0.42000
Cu598      Cu  0.39568353  0.82876153  0.72632871     0.43900
N599        N  0.34402954  0.82202448  0.72009946    -0.32100
N600        N  0.36373079  0.82383143  0.70300954    -0.26300
C601        C  0.35930453  0.82127510  0.66937161    -0.02400
C602        C  0.33575061  0.81777481  0.66542451     0.09800
C603        C  0.32654061  0.81827728  0.69789322     0.03600
H604        H  0.37228704  0.82155209  0.64943575     0.11200
H605        H  0.30855085  0.81566259  0.70495931     0.10300
N606        N  0.42535413  0.83278819  0.75572150    -0.33500
N607        N  0.42536609  0.83281719  0.78954939    -0.25700
C608        C  0.44726515  0.83565437  0.80075070    -0.00900
C609        C  0.46156315  0.83750319  0.77260183     0.07700
C610        C  0.44724513  0.83560586  0.74447953     0.05800
H611        H  0.45234825  0.83625391  0.82736279     0.10900
H612        H  0.45230892  0.83615988  0.71785959     0.09700
C613        C  0.30038961  0.64560370  0.46311620     0.82800
N614        N  0.29968475  0.67412504  0.47551043    -0.75500
C615        C  0.28488128  0.68129024  0.50119251     0.85300
N616        N  0.27072395  0.65994155  0.51442571    -0.75400
C617        C  0.27140915  0.63142246  0.50193219     0.85400
N618        N  0.28620899  0.62427443  0.47624114    -0.77200
C619        C  0.30030057  0.64580025  0.08211369     0.82800
N620        N  0.29960589  0.67432834  0.06974379    -0.75500
C621        C  0.28481133  0.68151192  0.04405812     0.85300
N622        N  0.27065353  0.66017423  0.03079704    -0.75400
C623        C  0.27132961  0.63164842  0.04326687     0.85400
N624        N  0.28612012  0.62448325  0.06896063    -0.77200
N625        N  0.36819242  0.62238129  0.20277121    -0.24700
N626        N  0.34851859  0.62344229  0.22002848    -0.32600
C627        C  0.33084191  0.62670956  0.19803046     0.03600
C628        C  0.33986928  0.62766329  0.16548231     0.09700
C629        C  0.36354185  0.62496085  0.16917911    -0.03400
H630        H  0.31283278  0.62879745  0.20530718     0.10300
H631        H  0.37644086  0.62538246  0.14912852     0.11500
Cu632      Cu  0.34640606  0.62192555  0.27258692     0.44200
Cu633      Cu  0.40034260  0.61884222  0.22605471     0.42000
Cu634      Cu  0.40039166  0.61890590  0.31901197     0.43900
N635        N  0.34856869  0.62344130  0.32514107    -0.32100
N636        N  0.36825809  0.62240654  0.34236120    -0.26300
C637        C  0.36363164  0.62495841  0.37596486    -0.02400
C638        C  0.33995861  0.62761462  0.37970601     0.09800
C639        C  0.33090669  0.62666355  0.34717348     0.03600
H640        H  0.37654511  0.62538137  0.39599359     0.11200
H641        H  0.31288884  0.62871356  0.33993128     0.10300
N642        N  0.43019002  0.61792209  0.28941582    -0.33500
N643        N  0.43017173  0.61789740  0.25557880    -0.25700
C644        C  0.45218534  0.61803074  0.24434064    -0.00900
C645        C  0.46660076  0.61807946  0.27245241     0.07700
C646        C  0.45221610  0.61807112  0.30059941     0.05800
H647        H  0.45726097  0.61851093  0.21772224     0.10900
H648        H  0.45732128  0.61858890  0.32720446     0.09700
C649        C  0.31535021  0.63849739  0.11001064    -0.10700
C650        C  0.32714146  0.63304370  0.13462435    -0.12200
C651        C  0.31544786  0.63832742  0.43521798    -0.10700
C652        C  0.32724292  0.63292369  0.41059249    -0.12200
C653        C  0.28392894  0.73701506  0.01997048    -0.10700
C654        C  0.28413755  0.71169146  0.03103795    -0.12200
C655        C  0.31227247  0.80788581  0.93651725    -0.10700
C656        C  0.32345288  0.81287230  0.91120884    -0.12200
C657        C  0.28397274  0.73677425  0.52534250    -0.10700
C658        C  0.28419787  0.71146108  0.51424111    -0.12200
C659        C  0.31219304  0.80760802  0.60894710    -0.10700
C660        C  0.32336774  0.81262331  0.63425410    -0.12200
C661        C  0.24238754  0.85874677  0.51580546    -0.10700
C662        C  0.25496965  0.83923165  0.52654156    -0.12200
C663        C  0.18401549  0.89124867  0.43555690    -0.10700
C664        C  0.17232260  0.88663366  0.41067042    -0.12200
C665        C  0.24238417  0.85901813  0.02953804    -0.10700
C666        C  0.25497944  0.83950192  0.01883255    -0.12200
C667        C  0.17230199  0.88695914  0.13461360    -0.10700
C668        C  0.18398799  0.89157976  0.10972227    -0.12200
C669        C  0.24369150  0.58998087  0.01824077    -0.10700
C670        C  0.25626841  0.60909529  0.02958581    -0.12200
C671        C  0.21541036  0.98754357  0.01715372    -0.10700
C672        C  0.21513059  0.96224768  0.02828952    -0.12200
C673        C  0.18616389  0.55989893  0.93567070    -0.10700
C674        C  0.17463294  0.56512130  0.91072331    -0.12200
C675        C  0.24377234  0.58974382  0.52692845    -0.10700
C676        C  0.25634924  0.60885952  0.51559037    -0.12200
C677        C  0.21548706  0.48730926  0.52798440    -0.10700
C678        C  0.21520327  0.96200725  0.51686172    -0.12200
C679        C  0.18626571  0.55965276  0.60951789    -0.10700
C680        C  0.17473376  0.56489717  0.63445963    -0.12200
C681        C  0.51222191  0.62221358  0.27240977    -0.10700
C682        C  0.49143102  0.61991898  0.27242229    -0.12200
C683        C  0.67452805  0.65900170  0.41047247    -0.10700
C684        C  0.68590563  0.66445340  0.43546111    -0.12200
C685        C  0.68597583  0.66406586  0.10939092    -0.10700
C686        C  0.67458884  0.65864552  0.13437859    -0.12200
C687        C  0.48631517  0.84039242  0.77257813    -0.10700
C688        C  0.50710858  0.84252267  0.77255795    -0.12200
C689        C  0.71451129  0.76127080  0.01635165    -0.10700
C690        C  0.71482221  0.73595987  0.02744640    -0.12200
C691        C  0.67149691  0.83741984  0.91071179    -0.10700
C692        C  0.68322414  0.83279792  0.93560558    -0.12200
C693        C  0.71438585  0.76172554  0.52845960    -0.10700
C694        C  0.71470704  0.73640576  0.51738658    -0.12200
C695        C  0.68310365  0.83327469  0.60919544    -0.10700
C696        C  0.67139351  0.83787521  0.63411236    -0.12200
C697        C  0.98704264  0.88672349  0.27264296    -0.10700
C698        C  0.00787621  0.88532457  0.27266025    -0.12200
C699        C  0.75471634  0.88322948  0.02647672    -0.10700
C700        C  0.74202152  0.86402309  0.01564078    -0.15000
C701        C  0.82360938  0.90988995  0.13382336    -0.10700
C702        C  0.81222760  0.91438442  0.10855625    -0.12200
C703        C  0.75453138  0.88370975  0.51823542    -0.10700
C704        C  0.74184311  0.86450214  0.52907933    -0.12200
C705        C  0.81203532  0.91482138  0.43613915    -0.10700
C706        C  0.82342875  0.91027991  0.41089389    -0.12200
C707        C  0.99077112  0.59816647  0.77240808    -0.10700
C708        C  0.01162715  0.59702048  0.77242243    -0.12200
C709        C  0.75563099  0.61378306  0.01525625    -0.10700
C710        C  0.74315219  0.63318697  0.02651204    -0.12200
C711        C  0.78344976  0.51080778  0.01442181    -0.10700
C712        C  0.78331755  0.98550006  0.02552462    -0.12200
C713        C  0.82626222  0.58851157  0.91018515    -0.10700
C714        C  0.81447792  0.58319444  0.93479715    -0.12200
C715        C  0.75554808  0.61424279  0.52962835    -0.10700
C716        C  0.74306266  0.63364411  0.51838813    -0.12200
C717        C  0.78318468  0.98595423  0.51921277    -0.10700
C718        C  0.78333811  0.51125795  0.53032996    -0.12200
C719        C  0.81447785  0.58359512  0.60992242    -0.10700
C720        C  0.82627713  0.58886736  0.63453138    -0.12200
loop_ 
_geom_bond_atom_site_label_1 
_geom_bond_atom_site_label_2 
_geom_bond_distance 
_geom_bond_site_symmetry_2 
_ccdc_geom_bond_type 
C1            N2   1.355       .  A
C1            N6   1.356       .  A
C1          C359   1.431       .  S
N2            C3   1.356       .  A
C3            N4   1.357       .  A
C3          C355   1.432       .  S
N4            C5   1.357       .  A
C5            N6   1.356       .  A
C5          C358   1.433       .  S
C7            N8   1.356       .  A
C7           N12   1.355       .  A
C7          C354   1.431       .  S
N8            C9   1.356   1_556  A
C9           N10   1.357       .  A
C9          C351   1.433       .  S
N10          C11   1.357       .  A
C11          N12   1.356   1_554  A
C11         C349   1.432       .  S
N13          C17   1.346       .  A
N13          N14   1.323       .  A
N13         Cu21   2.073       .  S
N14          C15   1.343       .  A
N14         Cu20   2.061       .  S
C15          C16   1.377       .  A
C15          H18   1.082       .  S
C16         C360   1.432       .  S
C16          C17   1.380       .  A
C17          H19   1.082       .  S
Cu20         N23   2.061       .  S
Cu21         N31   2.074       .  S
Cu22         N24   2.073       .  S
Cu22         N30   2.074       .  S
N23          C27   1.343       .  A
N23          N24   1.323       .  A
N24          C25   1.346       .  A
C25          C26   1.380       .  A
C25          H28   1.082       .  S
C26         C353   1.432       .  S
C26          C27   1.377       .  A
C27          H29   1.082       .  S
N30          C34   1.345       .  A
N30          N31   1.323       .  A
N31          C32   1.345       .  A
C32          C33   1.379       .  A
C32          H35   1.082       .  S
C33         C347   1.437       .  S
C33          C34   1.379       .  A
C34          H36   1.082       .  S
C37          N38   1.356       .  A
C37          N42   1.356       .  A
C37         C345   1.431       .  S
N38          C39   1.356       .  A
C39          N40   1.357       .  A
C39         C343   1.433       .  S
N40          C41   1.357       .  A
C41          N42   1.356       .  A
C41         C357   1.433       .  S
C43          N44   1.356       .  A
C43          N48   1.356       .  A
C43         C342   1.431       .  S
N44          C45   1.356       .  A
C45          N46   1.357       .  A
C45         C339   1.433       .  S
N46          C47   1.357       .  A
C47          N48   1.356       .  A
C47         C352   1.433       .  S
N49          C53   1.345       .  A
N49          N50   1.322       .  A
N49         Cu57   2.071       .  S
N50          C51   1.343       .  A
N50         Cu56   2.062       .  S
C51          C52   1.377       .  A
C51          H54   1.082       .  S
C52         C346   1.433       .  S
C52          C53   1.379       .  A
C53          H55   1.082       .  S
Cu56         N59   2.062       .  S
Cu57         N67   2.072       .  S
Cu58         N60   2.072       .  S
Cu58         N66   2.072       .  S
N59          C63   1.343       .  A
N59          N60   1.322       .  A
N60          C61   1.345       .  A
C61          C62   1.379       .  A
C61          H64   1.082       .  S
C62         C341   1.433       .  S
C62          C63   1.377       .  A
C63          H65   1.082       .  S
N66          C70   1.345       .  A
N66          N67   1.323       .  A
N67          C68   1.345       .  A
C68          C69   1.379       .  A
C68          H71   1.082       .  S
C69         C337   1.435       .  S
C69          C70   1.379       .  A
C70          H72   1.082       .  S
C73          N74   1.356       .  A
C73          N78   1.356       .  A
C73         C335   1.431       .  S
N74          C75   1.356       .  A
C75          N76   1.357       .  A
C75         C344   1.433       .  S
N76          C77   1.357       .  A
C77          N78   1.356       .  A
C77         C333   1.433       .  S
C79          N80   1.356       .  A
C79          N84   1.356       .  A
C79         C332   1.431       .  S
N80          C81   1.356   1_556  A
C81          N82   1.357       .  A
C81         C340   1.433       .  S
N82          C83   1.357       .  A
C83          N84   1.356   1_554  A
C83         C329   1.433       .  S
N85          C89   1.346       .  A
N85          N86   1.323       .  A
N85         Cu93   2.073       .  S
N86          C87   1.343       .  A
N86         Cu92   2.062       .  S
C87          C88   1.377       .  A
C87          H90   1.082       .  S
C88         C331   1.433       .  S
C88          C89   1.379       .  A
C89          H91   1.082       .  S
Cu92         N95   2.062       .  S
Cu93        N103   2.073       .  S
Cu94         N96   2.073       .  S
Cu94        N102   2.073       .  S
N95          C99   1.343       .  A
N95          N96   1.323       .  A
N96          C97   1.346       .  A
C97          C98   1.379       .  A
C97         H100   1.082       .  S
C98         C336   1.433       .  S
C98          C99   1.377       .  A
C99         H101   1.082       .  S
N102        C106   1.345       .  A
N102        N103   1.323       .  A
N103        C104   1.345       .  A
C104        C105   1.379       .  A
C104        H107   1.082       .  S
C105        C328   1.436       .  S
C105        C106   1.379       .  A
C106        H108   1.082       .  S
C109        N110   1.355       .  A
C109        N114   1.356       .  A
C109        C325   1.431       .  S
N110        C111   1.356       .  A
C111        N112   1.358       .  A
C111        C350   1.432       .  S
N112        C113   1.357       .  A
C113        N114   1.356       .  A
C113        C330   1.433       .  S
C115        N116   1.355       .  A
C115        N120   1.356       .  A
C115        C324   1.431       .  S
N116        C117   1.356       .  A
C117        N118   1.358       .  A
C117        C356   1.432       .  S
N118        C119   1.357       .  A
C119        N120   1.356       .  A
C119        C334   1.433       .  S
N121        C125   1.346       .  A
N121        N122   1.322       .  A
N121       Cu129   2.074       .  S
N122        C123   1.343       .  A
N122       Cu128   2.059       .  S
C123        C124   1.376       .  A
C123        H126   1.082       .  S
C124        C323   1.432       .  S
C124        C125   1.380       .  A
C125        H127   1.082       .  S
Cu128       N131   2.059       .  S
Cu129       N139   2.075       .  S
Cu130       N132   2.074       .  S
Cu130       N138   2.075       .  S
N131        C135   1.343       .  A
N131        N132   1.322       .  A
N132        C133   1.346       .  A
C133        C134   1.380       .  A
C133        H136   1.082       .  S
C134        C326   1.432       .  S
C134        C135   1.376       .  A
C135        H137   1.082       .  S
N138        C142   1.346       .  A
N138        N139   1.324       .  A
N139        C140   1.346       .  A
C140        C141   1.379       .  A
C140        H143   1.082       .  S
C141        C321   1.437       .  S
C141        C142   1.379       .  A
C142        H144   1.082       .  S
C145        N146   1.356       .  A
C145        N150   1.356       .  A
C145        C319   1.432       .  S
N146        C147   1.356       .  A
C147        N148   1.357       .  A
C147        C317   1.434   1_545  S
N148        C149   1.358       .  A
C149        N150   1.356       .  A
C149        C315   1.433       .  S
C151        N152   1.356       .  A
C151        N156   1.356       .  A
C151        C313   1.432       .  S
N152        C153   1.356   1_556  A
C153        N154   1.357       .  A
C153        C671   1.434   1_545  S
N154        C155   1.358       .  A
C155        N156   1.356   1_554  A
C155        C309   1.433       .  S
N157        C161   1.346       .  A
N157        N158   1.322       .  A
N157       Cu165   2.074       .  S
N158        C159   1.343       .  A
N158       Cu164   2.059       .  S
C159        C160   1.376       .  A
C159        H162   1.082       .  S
C160        C320   1.433       .  S
C160        C161   1.380       .  A
C161        H163   1.082       .  S
Cu164       N167   2.059       .  S
Cu165       N175   2.075       .  S
Cu166       N168   2.074       .  S
Cu166       N174   2.075       .  S
N167        C171   1.343       .  A
N167        N168   1.322       .  A
N168        C169   1.346       .  A
C169        C170   1.380       .  A
C169        H172   1.082       .  S
C170        C314   1.433       .  S
C170        C171   1.376       .  A
C171        H173   1.082       .  S
N174        C178   1.346       .  A
N174        N175   1.324       .  A
N175        C176   1.346       .  A
C176        C177   1.379       .  A
C176        H179   1.082       .  S
C177        C348   1.437       .  S
C177        C178   1.379       .  A
C178        H180   1.082       .  S
C181        N182   1.355       .  A
C181        N186   1.356       .  A
C181        C308   1.431       .  S
N182        C183   1.356       .  A
C183        N184   1.358       .  A
C183        C305   1.432       .  S
N184        C185   1.357       .  A
C185        N186   1.356       .  A
C185        C312   1.434       .  S
C187        N188   1.356       .  A
C187        N192   1.355       .  A
C187        C303   1.431       .  S
N188        C189   1.356       .  A
C189        N190   1.357       .  A
C189        C318   1.433       .  S
N190        C191   1.358       .  A
C191        N192   1.356       .  A
C191        C301   1.432       .  S
N193        C197   1.345       .  A
N193        N194   1.323       .  A
N193       Cu201   2.071       .  S
N194        C195   1.343       .  A
N194       Cu200   2.062       .  S
C195        C196   1.377       .  A
C195        H198   1.082       .  S
C196        C304   1.432       .  S
C196        C197   1.379       .  A
C197        H199   1.082       .  S
Cu200       N203   2.062       .  S
Cu201       N211   2.072       .  S
Cu202       N204   2.071       .  S
Cu202       N210   2.072       .  S
N203        C207   1.343       .  A
N203        N204   1.323       .  A
N204        C205   1.345       .  A
C205        C206   1.379       .  A
C205        H208   1.082       .  S
C206        C307   1.432       .  S
C206        C207   1.377       .  A
C207        H209   1.082       .  S
N210        C214   1.345       .  A
N210        N211   1.323       .  A
N211        C212   1.345       .  A
C212        C213   1.379       .  A
C212        H215   1.082       .  S
C213        C338   1.435       .  S
C213        C214   1.379       .  A
C214        H216   1.082       .  S
C217        N218   1.355       .  A
C217        N222   1.356       .  A
C217        C299   1.431       .  S
N218        C219   1.356       .  A
C219        N220   1.358       .  A
C219        C302   1.432       .  S
N220        C221   1.357       .  A
C221        N222   1.356       .  A
C221        C297   1.433       .  S
C223        N224   1.355       .  A
C223        N228   1.356       .  A
C223        C295   1.431       .  S
N224        C225   1.356   1_556  A
C225        N226   1.358       .  A
C225        C306   1.432       .  S
N226        C227   1.357       .  A
C227        N228   1.356   1_554  A
C227        C293   1.434       .  S
N229        C233   1.345       .  A
N229        N230   1.323       .  A
N229       Cu237   2.071       .  S
N230        C231   1.343       .  A
N230       Cu236   2.063       .  S
C231        C232   1.377       .  A
C231        H234   1.082       .  S
C232        C296   1.432       .  S
C232        C233   1.379       .  A
C233        H235   1.082       .  S
Cu236       N239   2.063       .  S
Cu237       N247   2.072       .  S
Cu238       N240   2.071       .  S
Cu238       N246   2.072       .  S
N239        C243   1.343       .  A
N239        N240   1.323       .  A
N240        C241   1.345       .  A
C241        C242   1.379       .  A
C241        H244   1.082       .  S
C242        C300   1.432       .  S
C242        C243   1.377       .  A
C243        H245   1.082       .  S
N246        C250   1.345       .  A
N246        N247   1.323       .  A
N247        C248   1.345       .  A
C248        C249   1.379       .  A
C248        H251   1.082       .  S
C249        C327   1.436       .  S
C249        C250   1.379       .  A
C250        H252   1.082       .  S
C253        N254   1.356       .  A
C253        N258   1.356       .  A
C253        C291   1.431       .  S
N254        C255   1.356       .  A
C255        N256   1.357       .  A
C255        C298   1.434       .  S
N256        C257   1.357       .  A
C257        N258   1.356       .  A
C257        C316   1.433       .  S
C259        N260   1.356       .  A
C259        N264   1.356       .  A
C259        C289   1.431       .  S
N260        C261   1.356       .  A
C261        N262   1.357       .  A
C261        C294   1.434       .  S
N262        C263   1.357       .  A
C263        N264   1.356       .  A
C263        C310   1.433       .  S
N265        C269   1.346       .  A
N265        N266   1.323       .  A
N265       Cu273   2.074       .  S
N266        C267   1.343       .  A
N266       Cu272   2.060       .  S
C267        C268   1.376       .  A
C267        H270   1.082       .  S
C268        C290   1.433       .  S
C268        C269   1.380       .  A
C269        H271   1.082       .  S
Cu272       N275   2.060       .  S
Cu273       N283   2.075       .  S
Cu274       N276   2.074       .  S
Cu274       N282   2.075       .  S
N275        C279   1.343       .  A
N275        N276   1.323       .  A
N276        C277   1.346       .  A
C277        C278   1.380       .  A
C277        H280   1.082       .  S
C278        C292   1.433       .  S
C278        C279   1.376       .  A
C279        H281   1.082       .  S
N282        C286   1.346       .  A
N282        N283   1.323       .  A
N283        C284   1.346       .  A
C284        C285   1.379       .  A
C284        H287   1.082       .  S
C285        C322   1.437       .  S
C285        C286   1.379       .  A
C286        H288   1.082       .  S
C289        C290   1.203       .  T
C291        C292   1.203       .  T
C293        C294   1.205       .  T
C295        C296   1.203       .  T
C297        C298   1.205       .  T
C299        C300   1.203       .  T
C301        C302   1.204       .  T
C303        C304   1.203       .  T
C305        C306   1.204       .  T
C307        C308   1.203       .  T
C309        C310   1.204       .  T
C311        C513   1.434       .  S
C311        C312   1.205       .  T
C313        C314   1.203       .  T
C315        C316   1.204       .  T
C317        C678   1.205       .  T
C318        C677   1.205       .  T
C319        C320   1.203       .  T
C321        C322   1.206       .  T
C323        C324   1.203       .  T
C325        C326   1.203       .  T
C327        C328   1.205       .  T
C329        C330   1.204       .  T
C331        C332   1.203       .  T
C333        C334   1.204       .  T
C335        C336   1.203       .  T
C337        C338   1.205   1_655  T
C339        C340   1.204       .  T
C341        C342   1.203       .  T
C343        C344   1.204       .  T
C345        C346   1.203       .  T
C347        C348   1.206   1_655  T
C349        C350   1.204       .  T
C351        C712   1.204   1_545  T
C352        C711   1.204       .  T
C353        C354   1.203       .  T
C355        C356   1.204       .  T
C357        C718   1.204       .  T
C358        C717   1.204   1_545  T
C359        C360   1.203       .  T
C361        N362   1.355       .  A
C361        N366   1.356       .  A
C361        C719   1.431       .  S
N362        C363   1.356       .  A
C363        N364   1.357       .  A
C363        C715   1.432       .  S
N364        C365   1.357       .  A
C365        N366   1.356       .  A
C365        C718   1.433       .  S
C367        N368   1.356       .  A
C367        N372   1.355       .  A
C367        C714   1.431       .  S
N368        C369   1.356   1_556  A
C369        N370   1.357       .  A
C369        C711   1.433       .  S
N370        C371   1.357       .  A
C371        N372   1.356   1_554  A
C371        C709   1.432       .  S
N373        C377   1.346       .  A
N373        N374   1.323       .  A
N373       Cu381   2.073       .  S
N374        C375   1.343       .  A
N374       Cu380   2.061       .  S
C375        C376   1.377       .  A
C375        H378   1.082       .  S
C376        C720   1.432       .  S
C376        C377   1.380       .  A
C377        H379   1.082       .  S
Cu380       N383   2.061       .  S
Cu381       N391   2.074       .  S
Cu382       N384   2.073       .  S
Cu382       N390   2.074       .  S
N383        C387   1.343       .  A
N383        N384   1.323       .  A
N384        C385   1.346       .  A
C385        C386   1.380       .  A
C385        H388   1.082       .  S
C386        C713   1.432       .  S
C386        C387   1.377       .  A
C387        H389   1.082       .  S
N390        C394   1.345       .  A
N390        N391   1.323       .  A
N391        C392   1.345       .  A
C392        C393   1.379       .  A
C392        H395   1.082       .  S
C393        C707   1.437       .  S
C393        C394   1.379       .  A
C394        H396   1.082       .  S
C397        N398   1.356       .  A
C397        N402   1.356       .  A
C397        C705   1.431       .  S
N398        C399   1.356       .  A
C399        N400   1.357       .  A
C399        C703   1.433       .  S
N400        C401   1.357       .  A
C401        N402   1.356       .  A
C401        C717   1.433       .  S
C403        N404   1.356       .  A
C403        N408   1.356       .  A
C403        C702   1.431       .  S
N404        C405   1.356       .  A
C405        N406   1.357       .  A
C405        C699   1.433       .  S
N406        C407   1.357       .  A
C407        N408   1.356       .  A
C407        C712   1.433       .  S
N409        C413   1.345       .  A
N409        N410   1.322       .  A
N409       Cu417   2.071       .  S
N410        C411   1.343       .  A
N410       Cu416   2.062       .  S
C411        C412   1.377       .  A
C411        H414   1.082       .  S
C412        C706   1.433       .  S
C412        C413   1.379       .  A
C413        H415   1.082       .  S
Cu416       N419   2.062       .  S
Cu417       N427   2.072       .  S
Cu418       N420   2.072       .  S
Cu418       N426   2.072       .  S
N419        C423   1.343       .  A
N419        N420   1.322       .  A
N420        C421   1.345       .  A
C421        C422   1.379       .  A
C421        H424   1.082       .  S
C422        C701   1.433       .  S
C422        C423   1.377       .  A
C423        H425   1.082       .  S
N426        C430   1.345       .  A
N426        N427   1.323       .  A
N427        C428   1.345       .  A
C428        C429   1.379       .  A
C428        H431   1.082       .  S
C429        C697   1.435       .  S
C429        C430   1.379       .  A
C430        H432   1.082       .  S
C433        N434   1.356       .  A
C433        N438   1.356       .  A
C433        C695   1.431       .  S
N434        C435   1.356       .  A
C435        N436   1.357       .  A
C435        C704   1.433       .  S
N436        C437   1.357       .  A
C437        N438   1.356       .  A
C437        C693   1.433       .  S
C439        N440   1.356       .  A
C439        N444   1.356       .  A
C439        C692   1.431       .  S
N440        C441   1.356   1_556  A
C441        N442   1.357       .  A
C441        C700   1.433       .  S
N442        C443   1.357       .  A
C443        N444   1.356   1_554  A
C443        C689   1.433       .  S
N445        C449   1.346       .  A
N445        N446   1.323       .  A
N445       Cu453   2.073       .  S
N446        C447   1.343       .  A
N446       Cu452   2.062       .  S
C447        C448   1.377       .  A
C447        H450   1.082       .  S
C448        C691   1.433       .  S
C448        C449   1.379       .  A
C449        H451   1.082       .  S
Cu452       N455   2.062       .  S
Cu453       N463   2.073       .  S
Cu454       N456   2.073       .  S
Cu454       N462   2.073       .  S
N455        C459   1.343       .  A
N455        N456   1.323       .  A
N456        C457   1.346       .  A
C457        C458   1.379       .  A
C457        H460   1.082       .  S
C458        C696   1.433       .  S
C458        C459   1.377       .  A
C459        H461   1.082       .  S
N462        C466   1.345       .  A
N462        N463   1.323       .  A
N463        C464   1.345       .  A
C464        C465   1.379       .  A
C464        H467   1.082       .  S
C465        C688   1.436       .  S
C465        C466   1.379       .  A
C466        H468   1.082       .  S
C469        N470   1.355       .  A
C469        N474   1.356       .  A
C469        C685   1.431       .  S
N470        C471   1.356       .  A
C471        N472   1.358       .  A
C471        C710   1.432       .  S
N472        C473   1.357       .  A
C473        N474   1.356       .  A
C473        C690   1.433       .  S
C475        N476   1.355       .  A
C475        N480   1.356       .  A
C475        C684   1.431       .  S
N476        C477   1.356       .  A
C477        N478   1.358       .  A
C477        C716   1.432       .  S
N478        C479   1.357       .  A
C479        N480   1.356       .  A
C479        C694   1.433       .  S
N481        C485   1.346       .  A
N481        N482   1.322       .  A
N481       Cu489   2.074       .  S
N482        C483   1.343       .  A
N482       Cu488   2.059       .  S
C483        C484   1.376       .  A
C483        H486   1.082       .  S
C484        C683   1.432       .  S
C484        C485   1.380       .  A
C485        H487   1.082       .  S
Cu488       N491   2.059       .  S
Cu489       N499   2.075       .  S
Cu490       N492   2.074       .  S
Cu490       N498   2.075       .  S
N491        C495   1.343       .  A
N491        N492   1.322       .  A
N492        C493   1.346       .  A
C493        C494   1.380       .  A
C493        H496   1.082       .  S
C494        C686   1.432       .  S
C494        C495   1.376       .  A
C495        H497   1.082       .  S
N498        C502   1.346       .  A
N498        N499   1.324       .  A
N499        C500   1.346       .  A
C500        C501   1.379       .  A
C500        H503   1.082       .  S
C501        C681   1.437       .  S
C501        C502   1.379       .  A
C502        H504   1.082       .  S
C505        N506   1.356       .  A
C505        N510   1.356       .  A
C505        C679   1.432       .  S
N506        C507   1.356       .  A
C507        N508   1.357       .  A
C507        C677   1.434       .  S
N508        C509   1.358       .  A
C509        N510   1.356       .  A
C509        C675   1.433       .  S
C511        N512   1.356       .  A
C511        N516   1.356       .  A
C511        C673   1.432       .  S
N512        C513   1.356   1_556  A
C513        N514   1.357       .  A
N514        C515   1.358       .  A
C515        N516   1.356   1_554  A
C515        C669   1.433       .  S
N517        C521   1.346       .  A
N517        N518   1.322       .  A
N517       Cu525   2.074       .  S
N518        C519   1.343       .  A
N518       Cu524   2.059       .  S
C519        C520   1.376       .  A
C519        H522   1.082       .  S
C520        C680   1.433       .  S
C520        C521   1.380       .  A
C521        H523   1.082       .  S
Cu524       N527   2.059       .  S
Cu525       N535   2.075       .  S
Cu526       N528   2.074       .  S
Cu526       N534   2.075       .  S
N527        C531   1.343       .  A
N527        N528   1.322       .  A
N528        C529   1.346       .  A
C529        C530   1.380       .  A
C529        H532   1.082       .  S
C530        C674   1.433       .  S
C530        C531   1.376       .  A
C531        H533   1.082       .  S
N534        C538   1.346       .  A
N534        N535   1.324       .  A
N535        C536   1.346       .  A
C536        C537   1.379       .  A
C536        H539   1.082       .  S
C537        C708   1.437       .  S
C537        C538   1.379       .  A
C538        H540   1.082       .  S
C541        N542   1.355       .  A
C541        N546   1.356       .  A
C541        C668   1.431       .  S
N542        C543   1.356       .  A
C543        N544   1.358       .  A
C543        C665   1.432       .  S
N544        C545   1.357       .  A
C545        N546   1.356       .  A
C545        C672   1.434       .  S
C547        N548   1.356       .  A
C547        N552   1.355       .  A
C547        C663   1.431       .  S
N548        C549   1.356       .  A
C549        N550   1.357       .  A
C549        C678   1.433       .  S
N550        C551   1.358       .  A
C551        N552   1.356       .  A
C551        C661   1.432       .  S
N553        C557   1.345       .  A
N553        N554   1.323       .  A
N553       Cu561   2.071       .  S
N554        C555   1.343       .  A
N554       Cu560   2.062       .  S
C555        C556   1.377       .  A
C555        H558   1.082       .  S
C556        C664   1.432       .  S
C556        C557   1.379       .  A
C557        H559   1.082       .  S
Cu560       N563   2.062       .  S
Cu561       N571   2.072       .  S
Cu562       N564   2.071       .  S
Cu562       N570   2.072       .  S
N563        C567   1.343       .  A
N563        N564   1.323       .  A
N564        C565   1.345       .  A
C565        C566   1.379       .  A
C565        H568   1.082       .  S
C566        C667   1.432       .  S
C566        C567   1.377       .  A
C567        H569   1.082       .  S
N570        C574   1.345       .  A
N570        N571   1.323       .  A
N571        C572   1.345       .  A
C572        C573   1.379       .  A
C572        H575   1.082       .  S
C573        C698   1.435       .  S
C573        C574   1.379       .  A
C574        H576   1.082       .  S
C577        N578   1.355       .  A
C577        N582   1.356       .  A
C577        C659   1.431       .  S
N578        C579   1.356       .  A
C579        N580   1.358       .  A
C579        C662   1.432       .  S
N580        C581   1.357       .  A
C581        N582   1.356       .  A
C581        C657   1.433       .  S
C583        N584   1.355       .  A
C583        N588   1.356       .  A
C583        C655   1.431       .  S
N584        C585   1.356   1_556  A
C585        N586   1.358       .  A
C585        C666   1.432       .  S
N586        C587   1.357       .  A
C587        N588   1.356   1_554  A
C587        C653   1.434       .  S
N589        C593   1.345       .  A
N589        N590   1.323       .  A
N589       Cu597   2.071       .  S
N590        C591   1.343       .  A
N590       Cu596   2.063       .  S
C591        C592   1.377       .  A
C591        H594   1.082       .  S
C592        C656   1.432       .  S
C592        C593   1.379       .  A
C593        H595   1.082       .  S
Cu596       N599   2.063       .  S
Cu597       N607   2.072       .  S
Cu598       N600   2.071       .  S
Cu598       N606   2.072       .  S
N599        C603   1.343       .  A
N599        N600   1.323       .  A
N600        C601   1.345       .  A
C601        C602   1.379       .  A
C601        H604   1.082       .  S
C602        C660   1.432       .  S
C602        C603   1.377       .  A
C603        H605   1.082       .  S
N606        C610   1.345       .  A
N606        N607   1.323       .  A
N607        C608   1.345       .  A
C608        C609   1.379       .  A
C608        H611   1.082       .  S
C609        C687   1.436       .  S
C609        C610   1.379       .  A
C610        H612   1.082       .  S
C613        N614   1.356       .  A
C613        N618   1.356       .  A
C613        C651   1.431       .  S
N614        C615   1.356       .  A
C615        N616   1.357       .  A
C615        C658   1.434       .  S
N616        C617   1.357       .  A
C617        N618   1.356       .  A
C617        C676   1.433       .  S
C619        N620   1.356       .  A
C619        N624   1.356       .  A
C619        C649   1.431       .  S
N620        C621   1.356       .  A
C621        N622   1.357       .  A
C621        C654   1.434       .  S
N622        C623   1.357       .  A
C623        N624   1.356       .  A
C623        C670   1.433       .  S
N625        C629   1.346       .  A
N625        N626   1.323       .  A
N625       Cu633   2.074       .  S
N626        C627   1.343       .  A
N626       Cu632   2.060       .  S
C627        C628   1.376       .  A
C627        H630   1.082       .  S
C628        C650   1.433       .  S
C628        C629   1.380       .  A
C629        H631   1.082       .  S
Cu632       N635   2.060       .  S
Cu633       N643   2.075       .  S
Cu634       N636   2.074       .  S
Cu634       N642   2.075       .  S
N635        C639   1.343       .  A
N635        N636   1.323       .  A
N636        C637   1.346       .  A
C637        C638   1.380       .  A
C637        H640   1.082       .  S
C638        C652   1.433       .  S
C638        C639   1.376       .  A
C639        H641   1.082       .  S
N642        C646   1.346       .  A
N642        N643   1.323       .  A
N643        C644   1.346       .  A
C644        C645   1.379       .  A
C644        H647   1.082       .  S
C645        C682   1.437       .  S
C645        C646   1.379       .  A
C646        H648   1.082       .  S
C649        C650   1.203       .  T
C651        C652   1.203       .  T
C653        C654   1.205       .  T
C655        C656   1.203       .  T
C657        C658   1.205       .  T
C659        C660   1.203       .  T
C661        C662   1.204       .  T
C663        C664   1.203       .  T
C665        C666   1.204       .  T
C667        C668   1.203       .  T
C669        C670   1.204       .  T
C671        C672   1.205       .  T
C673        C674   1.203       .  T
C675        C676   1.204       .  T
C679        C680   1.203       .  T
C681        C682   1.206       .  T
C683        C684   1.203       .  T
C685        C686   1.203       .  T
C687        C688   1.205       .  T
C689        C690   1.205       .  T
C691        C692   1.203       .  T
C693        C694   1.204       .  T
C695        C696   1.203       .  T
C697        C698   1.205   1_655  T
C699        C700   1.204       .  T
C701        C702   1.203       .  T
C703        C704   1.204       .  T
C705        C706   1.203       .  T
C707        C708   1.206   1_655  T
C709        C710   1.204       .  T
C713        C714   1.203       .  T
C715        C716   1.204       .  T
C719        C720   1.203       .  T
