geometry optimzed in LAMMPS
_audit_creation_date              2020-11-30 
_audit_creation_method            'lammps2cif' 
_symmetry_space_group_name_H-M    'P1' 
_symmetry_Int_Tables_number       1 
_symmetry_cell_setting            triclinic 
loop_ 
_symmetry_equiv_pos_as_xyz 
  x,y,z 
_cell_length_a                    43.63133395 
_cell_length_b                    25.95121885657901 
_cell_length_c                    41.575626426275356 
_cell_angle_alpha                 89.99812408991727 
_cell_angle_beta                  89.9565880753696 
_cell_angle_gamma                 90.00629398247673 
loop_ 
_atom_site_label 
_atom_site_type_symbol 
_atom_site_fract_x 
_atom_site_fract_y 
_atom_site_fract_z 
_atom_site_charge 
C1          C  0.05797937  0.88802119  0.07353589     0.42900
N2          N  0.04932008  0.95001715  0.04064907     0.01800
C3          C  0.41855823  0.10147825  0.03578347    -0.06100
H4          H  0.39855374  0.90599840  0.01974724     0.07300
C5          C  0.46248161  0.91252133  0.41821859    -0.06400
Co6        Co  0.49219477  0.00689561  0.05856120     0.74200
N7          N  0.43849975  0.95171606  0.03081042    -0.25600
Co8        Co  0.44099101  0.00796205  0.49533623     0.74100
C9          C  0.43403379  0.88806967  0.42897872     0.43000
N10         N  0.03526664  0.95096983  0.44451495     0.01400
N11         N  0.44411615  0.95192402  0.45980543     0.01500
N12         N  0.45259897  0.09969472  0.07687321    -0.46400
H13         H  0.01411071  0.90512334  0.10229863     0.07300
N14         N  0.45817478  0.95101336  0.05486985     0.01800
N15         N  0.44461597  0.06453724  0.46019051     0.01600
C16         C  0.43517289  0.12922048  0.42982566     0.43200
N17         N  0.05488496  0.95085840  0.46871985    -0.25100
C18         C  0.03018073  0.09943765  0.08315403    -0.06000
N19         N  0.06936816  0.91321047  0.04764471    -0.46200
N20         N  0.42486082  0.10240875  0.45536888    -0.46400
C21         C  0.05914619  0.12362231  0.07464876     0.42900
N22         N  0.45855357  0.06349885  0.05531131     0.01800
N23         N  0.05530914  0.06313464  0.46902953    -0.25100
N24         N  0.02588309  0.95065598  0.06074425    -0.25600
N25         N  0.03565825  0.06367817  0.44485459     0.01400
H26         H  0.09520190  0.10908703  0.47999243     0.07300
H27         H  0.47804483  0.11367376  0.39876400     0.07400
N28         N  0.43894692  0.06360398  0.03118605    -0.25600
N29         N  0.46689915  0.95164824  0.43889765    -0.25200
N30         N  0.04976508  0.06290860  0.04105345     0.01800
C31         C  0.42723622  0.88918979  0.06508424     0.43200
C32         C  0.07508399  0.91255726  0.46420732    -0.06500
N33         N  0.46737019  0.06453368  0.43924916    -0.25200
H34         H  0.47711530  0.90291652  0.39808896     0.07400
N35         N  0.45219099  0.91428584  0.07605501    -0.46500
H36         H  0.09431836  0.90386475  0.47966956     0.07300
C37         C  0.06669046  0.12562074  0.43447146     0.43000
C38         C  0.02927136  0.91281126  0.08227488    -0.06000
Co39       Co  0.05306648  0.00674509  0.00490501     0.73800
N40         N  0.04109357  0.91437655  0.42311385    -0.46200
C41         C  0.42778251  0.12533177  0.06602389     0.43300
N42         N  0.07020680  0.09891335  0.04842800    -0.46200
Co43       Co  0.00137486  0.00769815  0.44107777     0.73900
C44         C  0.46332892  0.10412167  0.41883656    -0.06500
C45         C  0.41795141  0.91395458  0.03514118    -0.06000
N46         N  0.02635109  0.06235431  0.06118708    -0.25600
N47         N  0.42397977  0.91471125  0.45470010    -0.46300
H48         H  0.39919388  0.10987534  0.02044097     0.07300
C49         C  0.07583600  0.10099913  0.46458173    -0.06500
Cl50       Cl  0.99694529  0.00734112  0.99995700    -0.49500
C51         C  0.06580803  0.88838928  0.43400660     0.43100
H52         H  0.01516054  0.10691457  0.10332466     0.07300
N53         N  0.04173999  0.10031227  0.42357588    -0.46200
C54         C  0.30543730  0.62756535  0.17410858     0.42900
N55         N  0.29803087  0.56400071  0.20592556     0.01800
C56         C  0.16868207  0.41112657  0.21764468    -0.06100
H57         H  0.14981984  0.61205684  0.23441729     0.07300
C58         C  0.21785229  0.60094113  0.33346530    -0.06400
Co59       Co  0.24037262  0.50748287  0.19080297     0.74200
N60         N  0.18810061  0.56341699  0.22133316    -0.25600
Co61       Co  0.19197393  0.50676036  0.25696923     0.74100
C62         C  0.18866552  0.62524374  0.32535096     0.43000
N63         N  0.28929459  0.56361468  0.30212969     0.01400
N64         N  0.19704947  0.56292173  0.29261645     0.01500
N65         N  0.20136544  0.41353487  0.17537047    -0.46400
H66         H  0.26067199  0.61155003  0.14657994     0.07300
N67         N  0.20683573  0.56351284  0.19638944     0.01800
N68         N  0.19743332  0.45013147  0.29230386     0.01600
C69         C  0.18976986  0.38674994  0.32443422     0.43200
N70         N  0.30725939  0.56316154  0.27656096    -0.25100
C71         C  0.27701889  0.41299041  0.16523449    -0.06000
N72         N  0.31760163  0.60142759  0.19907899    -0.46200
N73         N  0.17777671  0.41282642  0.29931024    -0.46400
C74         C  0.30586026  0.38813890  0.17367347     0.42900
N75         N  0.20706302  0.45098788  0.19608888     0.01800
N76         N  0.30745418  0.45145924  0.27633639    -0.25100
N77         N  0.27397571  0.56380646  0.18674326    -0.25600
N78         N  0.28952022  0.45076630  0.30192086     0.01400
H79         H  0.34659331  0.40621534  0.26204365     0.07300
H80         H  0.23458385  0.40287933  0.35192461     0.07400
N81         N  0.18837575  0.45057239  0.22106773    -0.25600
N82         N  0.22110906  0.56282309  0.31190849    -0.25200
N83         N  0.29823006  0.45134777  0.20569263     0.01800
C84         C  0.17708232  0.62760880  0.18781537     0.43200
C85         C  0.32807831  0.60071558  0.27928166    -0.06500
N86         N  0.22152030  0.45039474  0.31155358    -0.25200
H87         H  0.23354530  0.60956200  0.35285552     0.07400
N88         N  0.20100743  0.60108831  0.17580975    -0.46500
H89         H  0.34641616  0.60846801  0.26244737     0.07300
C90         C  0.32145067  0.38916800  0.30951239     0.43000
C91         C  0.27659628  0.60269031  0.16571706    -0.06000
Co92       Co  0.30329778  0.50749086  0.24102381     0.73800
N93         N  0.29706950  0.60003062  0.32300272    -0.46200
C94         C  0.17757735  0.38661394  0.18735306     0.43300
N95         N  0.31787310  0.41405845  0.19880549    -0.46200
Co96       Co  0.25544198  0.50693587  0.30767595     0.73900
C97         C  0.21872253  0.41162297  0.33270871    -0.06500
C98         C  0.16822618  0.60265782  0.21800399    -0.06000
N99         N  0.27422879  0.45160473  0.18643500    -0.25600
N100        N  0.17701514  0.59949659  0.29992769    -0.46300
H101        H  0.15037185  0.40130729  0.23408614     0.07300
C102        C  0.32826978  0.41384914  0.27891692    -0.06500
Cl103      Cl  0.24776129  0.50718581  0.24915881    -0.49500
C104        C  0.32125918  0.62510628  0.30994724     0.43100
H105        H  0.26113538  0.40414476  0.14605633     0.07300
N106        N  0.29729549  0.41416936  0.32265543    -0.46200
C107        C  0.09245202  0.22436889  0.13239248     0.16400
C108        C  0.09796367  0.25899446  0.15760616    -0.32600
C109        C  0.12563653  0.28640655  0.15716508     0.20800
C110        C  0.14694289  0.27945478  0.13276149     0.03000
C111        C  0.14155113  0.24446534  0.10769477    -0.22400
C112        C  0.11378704  0.21725469  0.10803805     0.12200
S113        S  0.06005950  0.18825055  0.12834300    -0.06000
C114        C  0.07538883  0.16308945  0.09350227    -0.09500
C115        C  0.10411473  0.18203053  0.08559375    -0.26100
S116        S  0.17851973  0.31785347  0.13583944    -0.03300
C117        C  0.16278071  0.34377267  0.17024109    -0.16700
C118        C  0.13471820  0.32306372  0.17894066    -0.14700
H119        H  0.08124332  0.26475013  0.17654510     0.20600
H120        H  0.15810159  0.23918177  0.08854420     0.16700
H121        H  0.11722473  0.17053502  0.06466138     0.19200
H122        H  0.12128018  0.33518019  0.19949642     0.12500
C123        C  0.10126751  0.22795929  0.37833191     0.16400
C124        C  0.10772274  0.26268098  0.35337173    -0.32600
C125        C  0.13563025  0.28950242  0.35461364     0.20800
C126        C  0.15630213  0.28188941  0.37948761     0.03400
C127        C  0.14983836  0.24718328  0.40445340    -0.22400
C128        C  0.12184078  0.22061231  0.40332472     0.12200
S129        S  0.06879051  0.19143434  0.38112435    -0.06000
C130        C  0.08303286  0.16601798  0.41636768    -0.09500
C131        C  0.11142656  0.18528019  0.42532467    -0.26100
S132        S  0.18868369  0.31868998  0.37682433    -0.03300
C133        C  0.17405591  0.34513104  0.34205363    -0.16700
C134        C  0.14573476  0.32569577  0.33300934    -0.14700
H135        H  0.09163865  0.26868067  0.33389754     0.20600
H136        H  0.16587439  0.24132409  0.42399366     0.16700
H137        H  0.12402204  0.17354181  0.44652224     0.19200
H138        H  0.13298823  0.33802045  0.31203198     0.12500
C139        C  0.09071208  0.78648068  0.13107755     0.16400
C140        C  0.09625605  0.75222714  0.15649621    -0.32600
C141        C  0.12428019  0.72581319  0.15662605     0.20800
C142        C  0.14582288  0.73325623  0.13250682     0.03000
C143        C  0.14036085  0.76776240  0.10720571    -0.22400
C144        C  0.11231446  0.79410060  0.10704341     0.12200
S145        S  0.05815096  0.82203945  0.12660084    -0.06000
C146        C  0.07386609  0.84785072  0.09212768    -0.09500
C147        C  0.10274576  0.82928879  0.08453670    -0.26100
S148        S  0.17785206  0.69614668  0.13624811    -0.03300
C149        C  0.16200848  0.67002539  0.17054005    -0.16700
C150        C  0.13356759  0.68979385  0.17874580    -0.14700
H151        H  0.07936694  0.74617265  0.17523322     0.20600
H152        H  0.15714199  0.77350174  0.08832857     0.16700
H153        H  0.11614567  0.84134985  0.06393032     0.19200
H154        H  0.12001343  0.67737201  0.19914684     0.12500
C155        C  0.33865370  0.28199969  0.11985578     0.16400
C156        C  0.34516931  0.24724013  0.09503543    -0.32600
C157        C  0.37278240  0.21984959  0.09681285     0.20800
C158        C  0.39289739  0.22625154  0.12232572     0.03000
C159        C  0.38633334  0.26089657  0.14721610    -0.22400
C160        C  0.35886910  0.28872061  0.14525513     0.12200
S161        S  0.30686777  0.32016431  0.12155118    -0.06000
C162        C  0.32120099  0.34594268  0.15659174    -0.09500
C163        C  0.34891364  0.32537107  0.16649132    -0.26100
S164        S  0.42513192  0.18919720  0.12004217    -0.03300
C165        C  0.41138112  0.16508337  0.08428072    -0.16700
C166        C  0.38333074  0.18488226  0.07482392    -0.14700
H167        H  0.32955357  0.24217072  0.07502894     0.20600
H168        H  0.40207983  0.26631142  0.16706819     0.16700
H169        H  0.36135792  0.33725420  0.18777401     0.19200
H170        H  0.37113653  0.17400299  0.05319079     0.12500
C171        C  0.37997177  0.78215257  0.39882096     0.16400
C172        C  0.35564696  0.74766263  0.39411195    -0.32600
C173        C  0.35497961  0.71990965  0.36519215     0.20800
C174        C  0.37761301  0.72609734  0.34205888     0.03000
C175        C  0.40204757  0.76030924  0.34686224    -0.22400
C176        C  0.40265438  0.78820339  0.37572583     0.12200
S177        S  0.38422509  0.82079241  0.43168841    -0.06000
C178        C  0.41679085  0.84563803  0.41406804    -0.09500
C179        C  0.42401976  0.82439701  0.38445022    -0.26100
S180        S  0.37264094  0.68919777  0.30855374    -0.03300
C181        C  0.33978730  0.66493531  0.32590884    -0.16700
C182        C  0.33314951  0.68477553  0.35604675    -0.14700
H183        H  0.33786498  0.74303424  0.41207651     0.20600
H184        H  0.41967245  0.76529216  0.32876322     0.16700
H185        H  0.44334984  0.83574326  0.36971703     0.19200
H186        H  0.31355037  0.67387160  0.37052824     0.12500
C187        C  0.38131561  0.23521445  0.39956429     0.16400
C188        C  0.35681763  0.26925768  0.39463990    -0.32600
C189        C  0.35575189  0.29591569  0.36533476     0.20800
C190        C  0.37818421  0.28917062  0.34204941     0.03000
C191        C  0.40282315  0.25548036  0.34708976    -0.22400
C192        C  0.40380619  0.22861767  0.37632076     0.12200
S193        S  0.38584759  0.19739929  0.43276084    -0.06000
C194        C  0.41819300  0.17200768  0.41501557    -0.09500
C195        C  0.42524262  0.19265793  0.38519005    -0.26100
S196        S  0.37274521  0.32482886  0.30809336    -0.03300
C197        C  0.34003677  0.34947458  0.32552156    -0.16700
C198        C  0.33371954  0.33050098  0.35595524    -0.14700
H199        H  0.33916821  0.27427666  0.41270463     0.20600
H200        H  0.42028244  0.25001545  0.32886552     0.16700
H201        H  0.44436097  0.18078148  0.37032036     0.19200
H202        H  0.31427782  0.34181233  0.37053908     0.12500
C203        C  0.10016577  0.78532417  0.37810791     0.16400
C204        C  0.10693683  0.75096466  0.35301711    -0.32600
C205        C  0.13432827  0.72273245  0.35505763     0.20800
C206        C  0.15416383  0.72860082  0.38084801     0.03000
C207        C  0.14733966  0.76279709  0.40596500    -0.22400
C208        C  0.11991381  0.79084679  0.40399702     0.12200
S209        S  0.06836674  0.82372212  0.37999109    -0.06000
C210        C  0.08183719  0.84745507  0.41603656    -0.09500
C211        C  0.10944292  0.82623624  0.42590756    -0.26100
S212        S  0.18616707  0.69077725  0.37891783    -0.03300
C213        C  0.17255811  0.66625742  0.34316662    -0.16700
C214        C  0.14477609  0.68695241  0.33333741    -0.14700
H215        H  0.09153438  0.74643226  0.33279597     0.20600
H216        H  0.16275256  0.76735091  0.42618295     0.16700
H217        H  0.12150507  0.83667591  0.44770309     0.19200
H218        H  0.13272643  0.67602153  0.31161928     0.12500
C219        C  0.33790112  0.73369738  0.12002053     0.16400
C220        C  0.34398115  0.76908912  0.09540350    -0.32600
C221        C  0.37213857  0.79503971  0.09624934     0.20800
C222        C  0.39320578  0.78653303  0.12065523     0.03000
C223        C  0.38711677  0.75118475  0.14527882    -0.22400
C224        C  0.35907476  0.72493805  0.14429137     0.12200
S225        S  0.30546271  0.69726671  0.12284307    -0.06000
C226        C  0.32080517  0.66952847  0.15682398    -0.09500
C227        C  0.34932902  0.68819594  0.16556895    -0.26100
S228        S  0.42585397  0.82233916  0.11759876    -0.03300
C229        C  0.41100184  0.84888877  0.08302853    -0.16700
C230        C  0.38231148  0.83067809  0.07444716    -0.14700
H231        H  0.32758184  0.77583339  0.07630572     0.20600
H232        H  0.40358791  0.74422763  0.16427563     0.16700
H233        H  0.36246720  0.67490644  0.18605042     0.19200
H234        H  0.36938345  0.84331147  0.05367183     0.12500
C235        C  0.05797926  0.88802121  0.57353599     0.42900
N236        N  0.04932005  0.95001697  0.54064911     0.01800
C237        C  0.41855840  0.10147802  0.53578350    -0.06100
H238        H  0.39855323  0.90599803  0.51974682     0.07300
C239        C  0.46248162  0.91252125  0.91821845    -0.06400
Co240      Co  0.49219478  0.00689566  0.55856123     0.74200
N241        N  0.43849972  0.95171597  0.53081042    -0.25600
Co242      Co  0.44099103  0.00796200  0.99533623     0.74100
C243        C  0.43403373  0.88806961  0.92897876     0.43000
N244        N  0.03526658  0.95096983  0.94451497     0.01400
N245        N  0.44411616  0.95192403  0.95980538     0.01500
N246        N  0.45259888  0.09969471  0.57687320    -0.46400
H247        H  0.01410957  0.90512293  0.60229960     0.07300
N248        N  0.45817472  0.95101337  0.55486997     0.01800
N249        N  0.44461592  0.06453718  0.96019039     0.01600
C250        C  0.43517306  0.12922039  0.92982555     0.43200
N251        N  0.05488491  0.95085857  0.96871987    -0.25100
C252        C  0.03018069  0.09943760  0.58315406    -0.06000
N253        N  0.06936815  0.91321047  0.54764480    -0.46200
N254        N  0.42486087  0.10240877  0.95536883    -0.46400
C255        C  0.05914616  0.12362226  0.57464868     0.42900
N256        N  0.45855354  0.06349885  0.55531143     0.01800
N257        N  0.05530912  0.06313471  0.96902950    -0.25100
N258        N  0.02588304  0.95065594  0.56074442    -0.25600
N259        N  0.03565825  0.06367822  0.94485453     0.01400
H260        H  0.09520140  0.10908753  0.97999207     0.07300
H261        H  0.47804606  0.11367451  0.89876308     0.07400
N262        N  0.43894690  0.06360409  0.53118597    -0.25600
N263        N  0.46689917  0.95164814  0.93889768    -0.25200
N264        N  0.04976508  0.06290855  0.54105351     0.01800
C265        C  0.42723622  0.88918988  0.56508420     0.43200
C266        C  0.07508403  0.91255748  0.96420735    -0.06500
N267        N  0.46737025  0.06453379  0.93924906    -0.25200
H268        H  0.47711494  0.90291664  0.89808940     0.07400
N269        N  0.45219104  0.91428570  0.57605505    -0.46500
H270        H  0.09431825  0.90386562  0.97966927     0.07300
C271        C  0.06669037  0.12562084  0.93447143     0.43000
C272        C  0.02927131  0.91281135  0.58227486    -0.06000
Co273      Co  0.05306644  0.00674498  0.50490502     0.73800
N274        N  0.04109357  0.91437653  0.92311391    -0.46200
C275        C  0.42778243  0.12533177  0.56602372     0.43300
N276        N  0.07020677  0.09891346  0.54842796    -0.46200
Co277      Co  0.00137481  0.00769813  0.94107774     0.73900
C278        C  0.46332901  0.10412165  0.91883667    -0.06500
C279        C  0.41795137  0.91395470  0.53514123    -0.06000
N280        N  0.02635111  0.06235426  0.56118707    -0.25600
N281        N  0.42397973  0.91471125  0.95470009    -0.46300
H282        H  0.39919271  0.10987597  0.52043949     0.07300
C283        C  0.07583602  0.10099931  0.96458173    -0.06500
Cl284      Cl  0.99694528  0.00734111  0.49995705    -0.49500
C285        C  0.06580807  0.88838928  0.93400661     0.43100
H286        H  0.01516098  0.10691397  0.60332429     0.07300
N287        N  0.04173993  0.10031234  0.92357580    -0.46200
C288        C  0.30543718  0.62756538  0.67410854     0.42900
N289        N  0.29803092  0.56400076  0.70592563     0.01800
C290        C  0.16868192  0.41112635  0.71764478    -0.06100
H291        H  0.14981974  0.61205768  0.73441771     0.07300
C292        C  0.21785229  0.60094094  0.83346518    -0.06400
Co293      Co  0.24037267  0.50748292  0.69080298     0.74200
N294        N  0.18810055  0.56341701  0.72133321    -0.25600
Co295      Co  0.19197390  0.50676036  0.75696917     0.74100
C296        C  0.18866557  0.62524361  0.82535106     0.43000
N297        N  0.28929463  0.56361462  0.80212968     0.01400
N298        N  0.19704941  0.56292170  0.79261646     0.01500
N299        N  0.20136558  0.41353494  0.67537035    -0.46400
H300        H  0.26067066  0.61155045  0.64657887     0.07300
N301        N  0.20683569  0.56351275  0.69638950     0.01800
N302        N  0.19743329  0.45013145  0.79230375     0.01600
C303        C  0.18976985  0.38674998  0.82443415     0.43200
N304        N  0.30725948  0.56316166  0.77656095    -0.25100
C305        C  0.27701898  0.41299050  0.66523472    -0.06000
N306        N  0.31760162  0.60142749  0.69907896    -0.46200
N307        N  0.17777665  0.41282648  0.79931019    -0.46400
C308        C  0.30586018  0.38813888  0.67367338     0.42900
N309        N  0.20706314  0.45098792  0.69608887     0.01800
N310        N  0.30745420  0.45145930  0.77633645    -0.25100
N311        N  0.27397572  0.56380647  0.68674317    -0.25600
N312        N  0.28952026  0.45076637  0.80192086     0.01400
H313        H  0.34659253  0.40621537  0.76204457     0.07300
H314        H  0.23458346  0.40287991  0.85192414     0.07400
N315        N  0.18837595  0.45057245  0.72106761    -0.25600
N316        N  0.22110909  0.56282306  0.81190858    -0.25200
N317        N  0.29823010  0.45134751  0.70569269     0.01800
C318        C  0.17708231  0.62760884  0.68781532     0.43200
C319        C  0.32807834  0.60071574  0.77928168    -0.06500
N320        N  0.22152026  0.45039473  0.81155348    -0.25200
H321        H  0.23354631  0.60956176  0.85285683     0.07400
N322        N  0.20100737  0.60108814  0.67580976    -0.46500
H323        H  0.34641655  0.60846859  0.76244715     0.07300
C324        C  0.32145058  0.38916803  0.80951253     0.43000
C325        C  0.27659628  0.60269015  0.66571714    -0.06000
Co326      Co  0.30329785  0.50749088  0.74102383     0.73800
N327        N  0.29706942  0.60003069  0.82300263    -0.46200
C328        C  0.17757759  0.38661389  0.68735292     0.43300
N329        N  0.31787311  0.41405831  0.69880545    -0.46200
Co330      Co  0.25544200  0.50693589  0.80767594     0.73900
C331        C  0.21872267  0.41162287  0.83270873    -0.06500
C332        C  0.16822627  0.60265791  0.71800390    -0.06000
N333        N  0.27422877  0.45160466  0.68643491    -0.25600
N334        N  0.17701510  0.59949644  0.79992774    -0.46300
H335        H  0.15037394  0.40130821  0.73408427     0.07300
C336        C  0.32826984  0.41384902  0.77891699    -0.06500
Cl337      Cl  0.24776134  0.50718584  0.74915878    -0.49500
C338        C  0.32125918  0.62510627  0.80994720     0.43100
H339        H  0.26113427  0.40414441  0.64605481     0.07300
N340        N  0.29729546  0.41416940  0.82265551    -0.46200
C341        C  0.09245207  0.22436896  0.63239229     0.16400
C342        C  0.09796362  0.25899456  0.65760616    -0.32600
C343        C  0.12563665  0.28640657  0.65716497     0.20800
C344        C  0.14694304  0.27945475  0.63276140     0.03000
C345        C  0.14155112  0.24446533  0.60769488    -0.22400
C346        C  0.11378714  0.21725470  0.60803789     0.12200
S347        S  0.06005941  0.18825075  0.62834282    -0.06000
C348        C  0.07538880  0.16308940  0.59350214    -0.09500
C349        C  0.10411476  0.18203044  0.58559369    -0.26100
S350        S  0.17851977  0.31785340  0.63583951    -0.03300
C351        C  0.16278073  0.34377261  0.67024111    -0.16700
C352        C  0.13471826  0.32306363  0.67894069    -0.14700
H353        H  0.08124412  0.26475069  0.67654352     0.20600
H354        H  0.15810274  0.23918156  0.58854274     0.16700
H355        H  0.11722500  0.17053470  0.56466129     0.19200
H356        H  0.12128010  0.33518042  0.69949654     0.12500
C357        C  0.10126762  0.22795938  0.87833189     0.16400
C358        C  0.10772281  0.26268112  0.85337173    -0.32600
C359        C  0.13563035  0.28950234  0.85461360     0.20800
C360        C  0.15630216  0.28188959  0.87948772     0.03400
C361        C  0.14983847  0.24718333  0.90445336    -0.22400
C362        C  0.12184089  0.22061251  0.90332477     0.12200
S363        S  0.06879052  0.19143450  0.88112436    -0.06000
C364        C  0.08303281  0.16601815  0.91636772    -0.09500
C365        C  0.11142662  0.18528033  0.92532473    -0.26100
S366        S  0.18868370  0.31869010  0.87682444    -0.03300
C367        C  0.17405593  0.34513112  0.84205370    -0.16700
C368        C  0.14573477  0.32569580  0.83300931    -0.14700
H369        H  0.09163862  0.26868089  0.83389750     0.20600
H370        H  0.16587488  0.24132417  0.92399412     0.16700
H371        H  0.12402182  0.17354259  0.94652218     0.19200
H372        H  0.13298841  0.33802027  0.81203225     0.12500
C373        C  0.09071217  0.78648088  0.63107743     0.16400
C374        C  0.09625589  0.75222718  0.65649632    -0.32600
C375        C  0.12428028  0.72581329  0.65662590     0.20800
C376        C  0.14582290  0.73325630  0.63250675     0.03000
C377        C  0.14036084  0.76776252  0.60720567    -0.22400
C378        C  0.11231451  0.79410087  0.60704334     0.12200
S379        S  0.05815098  0.82203963  0.62660089    -0.06000
C380        C  0.07386610  0.84785091  0.59212768    -0.09500
C381        C  0.10274569  0.82928890  0.58453671    -0.26100
S382        S  0.17785200  0.69614661  0.63624803    -0.03300
C383        C  0.16200848  0.67002541  0.67053993    -0.16700
C384        C  0.13356759  0.68979393  0.67874574    -0.14700
H385        H  0.07936840  0.74617350  0.67523160     0.20600
H386        H  0.15714232  0.77350245  0.58832845     0.16700
H387        H  0.11614617  0.84135083  0.56392980     0.19200
H388        H  0.12001361  0.67737225  0.69914660     0.12500
C389        C  0.33865373  0.28199956  0.61985588     0.16400
C390        C  0.34516929  0.24724000  0.59503536    -0.32600
C391        C  0.37278250  0.21984939  0.59681275     0.20800
C392        C  0.39289739  0.22625128  0.62232556     0.03000
C393        C  0.38633347  0.26089647  0.64721607    -0.22400
C394        C  0.35886906  0.28872052  0.64525485     0.12200
S395        S  0.30686770  0.32016422  0.62155117    -0.06000
C396        C  0.32120088  0.34594270  0.65659158    -0.09500
C397        C  0.34891376  0.32537108  0.66649137    -0.26100
S398        S  0.42513198  0.18919723  0.62004204    -0.03300
C399        C  0.41138107  0.16508328  0.58428049    -0.16700
C400        C  0.38333079  0.18488215  0.57482403    -0.14700
H401        H  0.32955438  0.24217040  0.57503032     0.20600
H402        H  0.40207877  0.26631057  0.66706695     0.16700
H403        H  0.36135715  0.33725332  0.68777182     0.19200
H404        H  0.37113553  0.17400210  0.55318888     0.12500
C405        C  0.37997181  0.78215245  0.89882090     0.16400
C406        C  0.35564679  0.74766254  0.89411199    -0.32600
C407        C  0.35497975  0.71990975  0.86519198     0.20800
C408        C  0.37761304  0.72609728  0.84205882     0.03000
C409        C  0.40204763  0.76030922  0.84686219    -0.22400
C410        C  0.40265422  0.78820338  0.87572584     0.12200
S411        S  0.38422498  0.82079227  0.93168843    -0.06000
C412        C  0.41679070  0.84563791  0.91406824    -0.09500
C413        C  0.42401975  0.82439716  0.88445021    -0.26100
S414        S  0.37264100  0.68919769  0.80855370    -0.03300
C415        C  0.33978738  0.66493532  0.82590875    -0.16700
C416        C  0.33314949  0.68477549  0.85604682    -0.14700
H417        H  0.33786607  0.74303425  0.91207513     0.20600
H418        H  0.41967227  0.76529264  0.82876328     0.16700
H419        H  0.44334850  0.83574206  0.86971846     0.19200
H420        H  0.31355148  0.67387264  0.87052730     0.12500
C421        C  0.38131567  0.23521445  0.89956446     0.16400
C422        C  0.35681767  0.26925757  0.89463994    -0.32600
C423        C  0.35575183  0.29591569  0.86533484     0.20800
C424        C  0.37818408  0.28917072  0.84204951     0.03000
C425        C  0.40282323  0.25548047  0.84708974    -0.22400
C426        C  0.40380615  0.22861759  0.87632088     0.12200
S427        S  0.38584771  0.19739914  0.93276086    -0.06000
C428        C  0.41819318  0.17200752  0.91501547    -0.09500
C429        C  0.42524265  0.19265815  0.88519011    -0.26100
S430        S  0.37274510  0.32482891  0.80809336    -0.03300
C431        C  0.34003666  0.34947459  0.82552163    -0.16700
C432        C  0.33371945  0.33050084  0.85595525    -0.14700
H433        H  0.33916787  0.27427652  0.91270489     0.20600
H434        H  0.42028137  0.25001651  0.82886702     0.16700
H435        H  0.44436174  0.18078090  0.87031932     0.19200
H436        H  0.31427746  0.34181250  0.87053936     0.12500
C437        C  0.10016570  0.78532417  0.87810792     0.16400
C438        C  0.10693675  0.75096467  0.85301715    -0.32600
C439        C  0.13432819  0.72273239  0.85505750     0.20800
C440        C  0.15416377  0.72860069  0.88084801     0.03000
C441        C  0.14733963  0.76279698  0.90596496    -0.22400
C442        C  0.11991376  0.79084668  0.90399702     0.12200
S443        S  0.06836678  0.82372226  0.87999111    -0.06000
C444        C  0.08183725  0.84745503  0.91603656    -0.09500
C445        C  0.10944300  0.82623617  0.92590761    -0.26100
S446        S  0.18616702  0.69077716  0.87891784    -0.03300
C447        C  0.17255803  0.66625732  0.84316651    -0.16700
C448        C  0.14477615  0.68695241  0.83333757    -0.14700
H449        H  0.09153416  0.74643227  0.83279583     0.20600
H450        H  0.16275257  0.76735038  0.92618302     0.16700
H451        H  0.12150483  0.83667520  0.94770277     0.19200
H452        H  0.13272551  0.67602071  0.81161733     0.12500
C453        C  0.33790107  0.73369740  0.62002053     0.16400
C454        C  0.34398116  0.76908900  0.59540354    -0.32600
C455        C  0.37213857  0.79503950  0.59624915     0.20800
C456        C  0.39320568  0.78653304  0.62065523     0.03000
C457        C  0.38711668  0.75118472  0.64527875    -0.22400
C458        C  0.35907473  0.72493798  0.64429133     0.12200
S459        S  0.30546274  0.69726669  0.62284308    -0.06000
C460        C  0.32080516  0.66952849  0.65682404    -0.09500
C461        C  0.34932899  0.68819602  0.66556891    -0.26100
S462        S  0.42585387  0.82233912  0.61759869    -0.03300
C463        C  0.41100180  0.84888885  0.58302837    -0.16700
C464        C  0.38231156  0.83067802  0.57444722    -0.14700
H465        H  0.32758177  0.77583316  0.57630551     0.20600
H466        H  0.40358796  0.74422768  0.66427564     0.16700
H467        H  0.36246744  0.67490631  0.68605074     0.19200
H468        H  0.36938281  0.84331208  0.55367033     0.12500
C469        C  0.55797941  0.88802122  0.07353589     0.42900
N470        N  0.54932009  0.95001715  0.04064905     0.01800
C471        C  0.91855838  0.10147817  0.03578356    -0.06100
H472        H  0.89855503  0.90599849  0.01974792     0.07300
C473        C  0.96248157  0.91252125  0.41821862    -0.06400
Co474      Co  0.99219481  0.00689571  0.05856118     0.74200
N475        N  0.93849983  0.95171614  0.03081049    -0.25600
Co476      Co  0.94099099  0.00796204  0.49533622     0.74100
C477        C  0.93403377  0.88806973  0.42897868     0.43000
N478        N  0.53526660  0.95096981  0.44451494     0.01400
N479        N  0.94411613  0.95192405  0.45980543     0.01500
N480        N  0.95259893  0.09969478  0.07687313    -0.46400
H481        H  0.51411079  0.90512337  0.10229863     0.07300
N482        N  0.95817480  0.95101347  0.05486990     0.01800
N483        N  0.94461598  0.06453726  0.46019052     0.01600
C484        C  0.93517296  0.12922051  0.42982564     0.43200
N485        N  0.55488488  0.95085836  0.46871984    -0.25100
C486        C  0.53018069  0.09943772  0.08315413    -0.06000
N487        N  0.56936818  0.91321048  0.04764470    -0.46200
N488        N  0.92486084  0.10240875  0.45536885    -0.46400
C489        C  0.55914627  0.12362237  0.07464863     0.42900
N490        N  0.95855352  0.06349893  0.05531128     0.01800
N491        N  0.55530908  0.06313463  0.46902952    -0.25100
N492        N  0.52588313  0.95065600  0.06074426    -0.25600
N493        N  0.53565822  0.06367823  0.44485459     0.01400
H494        H  0.59520181  0.10908692  0.47999234     0.07300
H495        H  0.97804493  0.11367384  0.39876379     0.07400
N496        N  0.93894676  0.06360405  0.03118597    -0.25600
N497        N  0.96689914  0.95164821  0.43889765    -0.25200
N498        N  0.54976506  0.06290863  0.04105343     0.01800
C499        C  0.92723626  0.88918979  0.06508431     0.43200
C500        C  0.57508406  0.91255722  0.46420737    -0.06500
N501        N  0.96737019  0.06453369  0.43924915    -0.25200
H502        H  0.97711522  0.90291638  0.39808899     0.07400
N503        N  0.95219098  0.91428591  0.07605507    -0.46500
H504        H  0.59431790  0.90386473  0.47966932     0.07300
C505        C  0.56669049  0.12562077  0.43447149     0.43000
C506        C  0.52927141  0.91281129  0.08227490    -0.06000
Co507      Co  0.55306646  0.00674510  0.00490499     0.73800
N508        N  0.54109361  0.91437658  0.42311382    -0.46200
C509        C  0.92778240  0.12533181  0.06602380     0.43300
N510        N  0.57020680  0.09891345  0.04842788    -0.46200
Co511      Co  0.50137482  0.00769818  0.44107775     0.73900
C512        C  0.96332891  0.10412164  0.41883655    -0.06500
C513        C  0.91795135  0.91395444  0.03514109    -0.06000
N514        N  0.52635108  0.06235426  0.06118703    -0.25600
N515        N  0.92397980  0.91471128  0.45470010    -0.46300
H516        H  0.89919216  0.10987569  0.02043986     0.07300
C517        C  0.57583599  0.10099906  0.46458171    -0.06500
Cl518      Cl  0.49694528  0.00734111  0.99995700    -0.49500
C519        C  0.56580799  0.88838922  0.43400664     0.43100
H520        H  0.51516147  0.10691407  0.10332385     0.07300
N521        N  0.54174006  0.10031230  0.42357588    -0.46200
C522        C  0.80543732  0.62756536  0.17410863     0.42900
N523        N  0.79803088  0.56400077  0.20592557     0.01800
C524        C  0.66868207  0.41112661  0.21764469    -0.06100
H525        H  0.64981821  0.61205713  0.23441845     0.07300
C526        C  0.71785236  0.60094126  0.33346543    -0.06400
Co527      Co  0.74037262  0.50748289  0.19080296     0.74200
N528        N  0.68810049  0.56341705  0.22133323    -0.25600
Co529      Co  0.69197393  0.50676035  0.25696923     0.74100
C530        C  0.68866542  0.62524372  0.32535088     0.43000
N531        N  0.78929462  0.56361465  0.30212968     0.01400
N532        N  0.69704950  0.56292170  0.29261641     0.01500
N533        N  0.70136548  0.41353492  0.17537042    -0.46400
H534        H  0.76067203  0.61154994  0.14657992     0.07300
N535        N  0.70683572  0.56351296  0.19638946     0.01800
N536        N  0.69743334  0.45013149  0.29230389     0.01600
C537        C  0.68976996  0.38674993  0.32443435     0.43200
N538        N  0.80725944  0.56316154  0.27656095    -0.25100
C539        C  0.77701890  0.41299044  0.16523445    -0.06000
N540        N  0.81760170  0.60142762  0.19907902    -0.46200
N541        N  0.67777682  0.41282644  0.29931029    -0.46400
C542        C  0.80586029  0.38813888  0.17367351     0.42900
N543        N  0.70706306  0.45098787  0.19608889     0.01800
N544        N  0.80745435  0.45145914  0.27633630    -0.25100
N545        N  0.77397575  0.56380647  0.18674324    -0.25600
N546        N  0.78952031  0.45076628  0.30192083     0.01400
H547        H  0.84659465  0.40621499  0.26204266     0.07300
H548        H  0.73458495  0.40287889  0.35192552     0.07400
N549        N  0.68837580  0.45057240  0.22106773    -0.25600
N550        N  0.72110903  0.56282302  0.31190843    -0.25200
N551        N  0.79823007  0.45134770  0.20569263     0.01800
C552        C  0.67708219  0.62760877  0.18781546     0.43200
C553        C  0.82807836  0.60071557  0.27928167    -0.06500
N554        N  0.72152039  0.45039467  0.31155365    -0.25200
H555        H  0.73354415  0.60956144  0.35285454     0.07400
N556        N  0.70100739  0.60108841  0.17580983    -0.46500
H557        H  0.84641621  0.60846803  0.26244739     0.07300
C558        C  0.82145079  0.38916800  0.30951230     0.43000
C559        C  0.77659629  0.60269027  0.16571701    -0.06000
Co560      Co  0.80329779  0.50749086  0.24102380     0.73800
N561        N  0.79706952  0.60003057  0.32300273    -0.46200
C562        C  0.67757742  0.38661393  0.18735305     0.43300
N563        N  0.81787318  0.41405841  0.19880552    -0.46200
Co564      Co  0.75544201  0.50693584  0.30767594     0.73900
C565        C  0.71872255  0.41162303  0.33270863    -0.06500
C566        C  0.66822633  0.60265768  0.21800390    -0.06000
N567        N  0.77422883  0.45160472  0.18643497    -0.25600
N568        N  0.67701513  0.59949660  0.29992761    -0.46300
H569        H  0.65037205  0.40130750  0.23408600     0.07300
C570        C  0.82826980  0.41384917  0.27891696    -0.06500
Cl571      Cl  0.74776138  0.50718581  0.24915881    -0.49500
C572        C  0.82125919  0.62510624  0.30994726     0.43100
H573        H  0.76113542  0.40414485  0.14605630     0.07300
N574        N  0.79729556  0.41416940  0.32265538    -0.46200
C575        C  0.59245195  0.22436878  0.13239251     0.16400
C576        C  0.59796360  0.25899438  0.15760623    -0.32600
C577        C  0.62563652  0.28640652  0.15716505     0.20800
C578        C  0.64694283  0.27945482  0.13276155     0.03000
C579        C  0.64155117  0.24446532  0.10769467    -0.22400
C580        C  0.61378695  0.21725462  0.10803806     0.12200
S581        S  0.56005951  0.18825049  0.12834298    -0.06000
C582        C  0.57538894  0.16308943  0.09350217    -0.09500
C583        C  0.60411473  0.18203060  0.08559376    -0.26100
S584        S  0.67851972  0.31785357  0.13583939    -0.03300
C585        C  0.66278074  0.34377270  0.17024103    -0.16700
C586        C  0.63471817  0.32306374  0.17894076    -0.14700
H587        H  0.58124332  0.26474999  0.17654513     0.20600
H588        H  0.65810046  0.23918231  0.08854517     0.16700
H589        H  0.61722547  0.17053445  0.06466041     0.19200
H590        H  0.62128086  0.33517962  0.19949580     0.12500
C591        C  0.60126743  0.22795935  0.37833181     0.16400
C592        C  0.60772281  0.26268095  0.35337181    -0.32600
C593        C  0.63563019  0.28950247  0.35461364     0.20800
C594        C  0.65630216  0.28188944  0.37948761     0.03400
C595        C  0.64983841  0.24718340  0.40445342    -0.22400
C596        C  0.62184079  0.22061238  0.40332469     0.12200
S597        S  0.56879048  0.19143426  0.38112434    -0.06000
C598        C  0.58303286  0.16601791  0.41636766    -0.09500
C599        C  0.61142655  0.18528016  0.42532463    -0.26100
S600        S  0.68868374  0.31868999  0.37682433    -0.03300
C601        C  0.67405599  0.34513097  0.34205371    -0.16700
C602        C  0.64573478  0.32569583  0.33300929    -0.14700
H603        H  0.59163747  0.26868122  0.33389637     0.20600
H604        H  0.66587443  0.24132436  0.42399365     0.16700
H605        H  0.62402202  0.17354180  0.44652222     0.19200
H606        H  0.63298892  0.33802000  0.31203264     0.12500
C607        C  0.59071204  0.78648073  0.13107759     0.16400
C608        C  0.59625598  0.75222716  0.15649624    -0.32600
C609        C  0.62428018  0.72581308  0.15662607     0.20800
C610        C  0.64582291  0.73325611  0.13250682     0.03000
C611        C  0.64036093  0.76776231  0.10720566    -0.22400
C612        C  0.61231441  0.79410048  0.10704348     0.12200
S613        S  0.55815090  0.82203953  0.12660089    -0.06000
C614        C  0.57386601  0.84785070  0.09212775    -0.09500
C615        C  0.60274580  0.82928885  0.08453662    -0.26100
S616        S  0.67785205  0.69614665  0.13624814    -0.03300
C617        C  0.66200842  0.67002530  0.17054012    -0.16700
C618        C  0.63356760  0.68979378  0.17874573    -0.14700
H619        H  0.57936698  0.74617289  0.17523309     0.20600
H620        H  0.65714183  0.77350150  0.08832875     0.16700
H621        H  0.61614478  0.84134899  0.06393129     0.19200
H622        H  0.62001274  0.67737141  0.19914757     0.12500
C623        C  0.83865382  0.28199973  0.11985588     0.16400
C624        C  0.84516935  0.24724001  0.09503538    -0.32600
C625        C  0.87278260  0.21984959  0.09681295     0.20800
C626        C  0.89289746  0.22625147  0.12232576     0.03000
C627        C  0.88633341  0.26089658  0.14721612    -0.22400
C628        C  0.85886915  0.28872066  0.14525514     0.12200
S629        S  0.80686783  0.32016432  0.12155117    -0.06000
C630        C  0.82120103  0.34594270  0.15659175    -0.09500
C631        C  0.84891369  0.32537110  0.16649133    -0.26100
S632        S  0.92513196  0.18919723  0.12004217    -0.03300
C633        C  0.91138116  0.16508338  0.08428072    -0.16700
C634        C  0.88333076  0.18488222  0.07482392    -0.14700
H635        H  0.82955481  0.24217105  0.07503016     0.20600
H636        H  0.90207983  0.26631145  0.16706807     0.16700
H637        H  0.86135797  0.33725424  0.18777403     0.19200
H638        H  0.87113664  0.17400310  0.05319094     0.12500
C639        C  0.87997178  0.78215249  0.39882098     0.16400
C640        C  0.85564689  0.74766257  0.39411201    -0.32600
C641        C  0.85497969  0.71990965  0.36519212     0.20800
C642        C  0.87761297  0.72609736  0.34205887     0.03000
C643        C  0.90204762  0.76030928  0.34686216    -0.22400
C644        C  0.90265421  0.78820342  0.37572584     0.12200
S645        S  0.88422512  0.82079243  0.43168843    -0.06000
C646        C  0.91679080  0.84563806  0.41406811    -0.09500
C647        C  0.92401984  0.82439711  0.38445011    -0.26100
S648        S  0.87264090  0.68919783  0.30855369    -0.03300
C649        C  0.83978735  0.66493531  0.32590877    -0.16700
C650        C  0.83314943  0.68477542  0.35604685    -0.14700
H651        H  0.83786522  0.74303420  0.41207629     0.20600
H652        H  0.91967198  0.76529226  0.32876355     0.16700
H653        H  0.94334826  0.83574263  0.36971794     0.19200
H654        H  0.81355176  0.67387211  0.37052748     0.12500
C655        C  0.88131570  0.23521448  0.39956427     0.16400
C656        C  0.85681751  0.26925767  0.39464001    -0.32600
C657        C  0.85575178  0.29591580  0.36533474     0.20800
C658        C  0.87818403  0.28917076  0.34204950     0.03000
C659        C  0.90282323  0.25548037  0.34708965    -0.22400
C660        C  0.90380596  0.22861766  0.37632088     0.12200
S661        S  0.88584758  0.19739932  0.43276089    -0.06000
C662        C  0.91819290  0.17200765  0.41501566    -0.09500
C663        C  0.92524273  0.19265788  0.38518993    -0.26100
S664        S  0.87274520  0.32482891  0.30809341    -0.03300
C665        C  0.84003669  0.34947460  0.32552163    -0.16700
C666        C  0.83371962  0.33050099  0.35595516    -0.14700
H667        H  0.83916952  0.27427640  0.41270352     0.20600
H668        H  0.92028083  0.25001569  0.32886690     0.16700
H669        H  0.94435908  0.18078234  0.37032147     0.19200
H670        H  0.81427618  0.34181297  0.37054002     0.12500
C671        C  0.60016573  0.78532406  0.37810787     0.16400
C672        C  0.60693689  0.75096474  0.35301721    -0.32600
C673        C  0.63432811  0.72273250  0.35505751     0.20800
C674        C  0.65416380  0.72860087  0.38084806     0.03000
C675        C  0.64733959  0.76279700  0.40596490    -0.22400
C676        C  0.61991395  0.79084682  0.40399709     0.12200
S677        S  0.56836673  0.82372218  0.37999108    -0.06000
C678        C  0.58183719  0.84745511  0.41603656    -0.09500
C679        C  0.60944290  0.82623623  0.42590753    -0.26100
S680        S  0.68616701  0.69077722  0.37891785    -0.03300
C681        C  0.67255804  0.66625745  0.34316659    -0.16700
C682        C  0.64477602  0.68695249  0.33333735    -0.14700
H683        H  0.59153317  0.74643181  0.33279471     0.20600
H684        H  0.66275371  0.76735118  0.42618413     0.16700
H685        H  0.62150517  0.83667605  0.44770324     0.19200
H686        H  0.63272635  0.67602159  0.31161915     0.12500
C687        C  0.83790123  0.73369744  0.12002053     0.16400
C688        C  0.84398117  0.76908916  0.09540342    -0.32600
C689        C  0.87213859  0.79503967  0.09624930     0.20800
C690        C  0.89320572  0.78653307  0.12065523     0.03000
C691        C  0.88711676  0.75118469  0.14527882    -0.22400
C692        C  0.85907480  0.72493798  0.14429134     0.12200
S693        S  0.80546284  0.69726677  0.12284306    -0.06000
C694        C  0.82080520  0.66952843  0.15682399    -0.09500
C695        C  0.84932905  0.68819588  0.16556895    -0.26100
S696        S  0.92585390  0.82233918  0.11759878    -0.03300
C697        C  0.91100176  0.84888872  0.08302852    -0.16700
C698        C  0.88231138  0.83067806  0.07444709    -0.14700
H699        H  0.82758211  0.77583320  0.07630603     0.20600
H700        H  0.90358778  0.74422760  0.16427554     0.16700
H701        H  0.86246716  0.67490641  0.18605041     0.19200
H702        H  0.86938348  0.84331126  0.05367186     0.12500
C703        C  0.55797936  0.88802123  0.57353592     0.42900
N704        N  0.54932006  0.95001702  0.54064907     0.01800
C705        C  0.91855854  0.10147794  0.53578358    -0.06100
H706        H  0.89855453  0.90599812  0.51974750     0.07300
C707        C  0.96248158  0.91252118  0.91821849    -0.06400
Co708      Co  0.99219482  0.00689575  0.55856122     0.74200
N709        N  0.93849980  0.95171607  0.53081049    -0.25600
Co710      Co  0.94099100  0.00796200  0.99533623     0.74100
C711        C  0.93403372  0.88806968  0.92897872     0.43000
N712        N  0.53526651  0.95096987  0.94451495     0.01400
N713        N  0.94411614  0.95192407  0.95980538     0.01500
N714        N  0.95259883  0.09969479  0.57687312    -0.46400
H715        H  0.51411065  0.90512324  0.60229867     0.07300
N716        N  0.95817475  0.95101348  0.55487002     0.01800
N717        N  0.94461592  0.06453718  0.96019043     0.01600
C718        C  0.93517299  0.12922037  0.92982562     0.43200
N719        N  0.55488470  0.95085864  0.96871979    -0.25100
C720        C  0.53018065  0.09943767  0.58315415    -0.06000
N721        N  0.56936820  0.91321049  0.54764476    -0.46200
N722        N  0.92486083  0.10240878  0.95536887    -0.46400
C723        C  0.55914624  0.12362232  0.57464856     0.42900
N724        N  0.95855348  0.06349895  0.55531141     0.01800
N725        N  0.55530905  0.06313473  0.96902953    -0.25100
N726        N  0.52588312  0.95065601  0.56074434    -0.25600
N727        N  0.53565826  0.06367825  0.94485454     0.01400
H728        H  0.59520125  0.10908726  0.97999184     0.07300
H729        H  0.97804504  0.11367396  0.89876381     0.07400
N730        N  0.93894675  0.06360416  0.53118589    -0.25600
N731        N  0.96689915  0.95164811  0.93889769    -0.25200
N732        N  0.54976506  0.06290857  0.54105349     0.01800
C733        C  0.92723626  0.88918988  0.56508427     0.43200
C734        C  0.57508415  0.91255741  0.96420743    -0.06500
N735        N  0.96737017  0.06453372  0.93924911    -0.25200
H736        H  0.97711486  0.90291651  0.89808943     0.07400
N737        N  0.95219104  0.91428578  0.57605512    -0.46500
H738        H  0.59431643  0.90386602  0.97966808     0.07300
C739        C  0.56669035  0.12562083  0.93447143     0.43000
C740        C  0.52927137  0.91281128  0.58227493    -0.06000
Co741      Co  0.55306644  0.00674499  0.50490500     0.73800
N742        N  0.54109357  0.91437655  0.92311383    -0.46200
C743        C  0.92778230  0.12533182  0.56602363     0.43300
N744        N  0.57020677  0.09891357  0.54842784    -0.46200
Co745      Co  0.50137481  0.00769820  0.94107774     0.73900
C746        C  0.96332902  0.10412174  0.91883654    -0.06500
C747        C  0.91795132  0.91395457  0.53514113    -0.06000
N748        N  0.52635110  0.06235420  0.56118702    -0.25600
N749        N  0.92397976  0.91471128  0.95470009    -0.46300
H750        H  0.89919100  0.10987631  0.52043838     0.07300
C751        C  0.57583601  0.10099922  0.96458170    -0.06500
Cl752      Cl  0.49694527  0.00734111  0.49995704    -0.49500
C753        C  0.56580795  0.88838924  0.93400656     0.43100
H754        H  0.51516191  0.10691347  0.60332348     0.07300
N755        N  0.54173995  0.10031242  0.92357582    -0.46200
C756        C  0.80543728  0.62756537  0.67410866     0.42900
N757        N  0.79803086  0.56400079  0.70592567     0.01800
C758        C  0.66868192  0.41112652  0.71764469    -0.06100
H759        H  0.64981811  0.61205798  0.73441886     0.07300
C760        C  0.71785237  0.60094107  0.83346531    -0.06400
Co761      Co  0.74037261  0.50748291  0.69080298     0.74200
N762        N  0.68810043  0.56341708  0.72133328    -0.25600
Co763      Co  0.69197388  0.50676036  0.75696916     0.74100
C764        C  0.68866548  0.62524358  0.82535098     0.43000
N765        N  0.78929463  0.56361460  0.80212969     0.01400
N766        N  0.69704946  0.56292168  0.79261642     0.01500
N767        N  0.70136552  0.41353491  0.67537040    -0.46400
H768        H  0.76067180  0.61155006  0.64657975     0.07300
N769        N  0.70683567  0.56351287  0.69638953     0.01800
N770        N  0.69743331  0.45013146  0.79230377     0.01600
C771        C  0.68976995  0.38674997  0.82443428     0.43200
N772        N  0.80725946  0.56316167  0.77656094    -0.25100
C773        C  0.77701896  0.41299054  0.66523465    -0.06000
N774        N  0.81760169  0.60142748  0.69907903    -0.46200
N775        N  0.67777675  0.41282649  0.79931024    -0.46400
C776        C  0.80586019  0.38813882  0.67367342     0.42900
N777        N  0.70706308  0.45098787  0.69608890     0.01800
N778        N  0.80745430  0.45145918  0.77633635    -0.25100
N779        N  0.77397576  0.56380641  0.68674322    -0.25600
N780        N  0.78952032  0.45076633  0.80192085     0.01400
H781        H  0.84659378  0.40621507  0.76204355     0.07300
H782        H  0.73458456  0.40287947  0.85192505     0.07400
N783        N  0.68837586  0.45057236  0.72106769    -0.25600
N784        N  0.72110906  0.56282298  0.81190852    -0.25200
N785        N  0.79823003  0.45134745  0.70569270     0.01800
C786        C  0.67708218  0.62760879  0.68781540     0.43200
C787        C  0.82807835  0.60071570  0.77928167    -0.06500
N788        N  0.72152035  0.45039466  0.81155355    -0.25200
H789        H  0.73354516  0.60956120  0.85285585     0.07400
N790        N  0.70100733  0.60108822  0.67580984    -0.46500
H791        H  0.84641651  0.60846856  0.76244714     0.07300
C792        C  0.82145070  0.38916806  0.80951244     0.43000
C793        C  0.77659630  0.60269023  0.66571703    -0.06000
Co794      Co  0.80329782  0.50749088  0.74102383     0.73800
N795        N  0.79706945  0.60003063  0.82300265    -0.46200
C796        C  0.67757748  0.38661390  0.68735298     0.43300
N797        N  0.81787312  0.41405830  0.69880548    -0.46200
Co798      Co  0.75544201  0.50693585  0.80767595     0.73900
C799        C  0.71872269  0.41162294  0.83270864    -0.06500
C800        C  0.66822642  0.60265777  0.71800381    -0.06000
N801        N  0.77422874  0.45160465  0.68643488    -0.25600
N802        N  0.67701509  0.59949645  0.79992766    -0.46300
H803        H  0.65037274  0.40130808  0.73408499     0.07300
C804        C  0.82826982  0.41384909  0.77891700    -0.06500
Cl805      Cl  0.74776137  0.50718583  0.74915878    -0.49500
C806        C  0.82125920  0.62510619  0.80994722     0.43100
H807        H  0.76113423  0.40414449  0.64605473     0.07300
N808        N  0.79729553  0.41416945  0.82265548    -0.46200
C809        C  0.59245200  0.22436884  0.63239231     0.16400
C810        C  0.59796353  0.25899445  0.65760623    -0.32600
C811        C  0.62563662  0.28640651  0.65716493     0.20800
C812        C  0.64694297  0.27945478  0.63276146     0.03000
C813        C  0.64155116  0.24446530  0.60769479    -0.22400
C814        C  0.61378706  0.21725463  0.60803789     0.12200
S815        S  0.56005942  0.18825070  0.62834280    -0.06000
C816        C  0.57538891  0.16308938  0.59350204    -0.09500
C817        C  0.60411476  0.18203052  0.58559370    -0.26100
S818        S  0.67851978  0.31785352  0.63583943    -0.03300
C819        C  0.66278077  0.34377264  0.67024102    -0.16700
C820        C  0.63471820  0.32306368  0.67894076    -0.14700
H821        H  0.58124410  0.26475050  0.67654353     0.20600
H822        H  0.65810162  0.23918210  0.58854371     0.16700
H823        H  0.61722574  0.17053412  0.56466032     0.19200
H824        H  0.62128089  0.33517965  0.69949569     0.12500
C825        C  0.60126746  0.22795944  0.87833177     0.16400
C826        C  0.60772282  0.26268106  0.85337180    -0.32600
C827        C  0.63563026  0.28950235  0.85461360     0.20800
C828        C  0.65630217  0.28188960  0.87948771     0.03400
C829        C  0.64983847  0.24718341  0.90445335    -0.22400
C830        C  0.62184083  0.22061253  0.90332470     0.12200
S831        S  0.56879042  0.19143449  0.88112438    -0.06000
C832        C  0.58303272  0.16601807  0.91636769    -0.09500
C833        C  0.61142652  0.18528024  0.92532463    -0.26100
S834        S  0.68868375  0.31869009  0.87682445    -0.03300
C835        C  0.67405600  0.34513105  0.84205378    -0.16700
C836        C  0.64573479  0.32569584  0.83300927    -0.14700
H837        H  0.59163737  0.26868148  0.83389629     0.20600
H838        H  0.66587487  0.24132440  0.92399409     0.16700
H839        H  0.62402173  0.17354251  0.94652209     0.19200
H840        H  0.63298910  0.33801981  0.81203292     0.12500
C841        C  0.59071217  0.78648091  0.63107747     0.16400
C842        C  0.59625587  0.75222725  0.65649635    -0.32600
C843        C  0.62428024  0.72581325  0.65662595     0.20800
C844        C  0.64582289  0.73325627  0.63250677     0.03000
C845        C  0.64036094  0.76776252  0.60720559    -0.22400
C846        C  0.61231448  0.79410075  0.60704339     0.12200
S847        S  0.55815095  0.82203967  0.62660095    -0.06000
C848        C  0.57386604  0.84785087  0.59212776    -0.09500
C849        C  0.60274574  0.82928895  0.58453663    -0.26100
S850        S  0.67785199  0.69614661  0.63624806    -0.03300
C851        C  0.66200845  0.67002533  0.67054000    -0.16700
C852        C  0.63356763  0.68979393  0.67874564    -0.14700
H853        H  0.57936831  0.74617355  0.67523165     0.20600
H854        H  0.65714208  0.77350215  0.58832868     0.16700
H855        H  0.61614526  0.84134996  0.56393079     0.19200
H856        H  0.62001287  0.67737156  0.69914734     0.12500
C857        C  0.83865378  0.28199959  0.61985590     0.16400
C858        C  0.84516929  0.24724001  0.59503534    -0.32600
C859        C  0.87278253  0.21984947  0.59681275     0.20800
C860        C  0.89289741  0.22625126  0.62232566     0.03000
C861        C  0.88633345  0.26089646  0.64721601    -0.22400
C862        C  0.85886916  0.28872058  0.64525494     0.12200
S863        S  0.80686777  0.32016423  0.62155120    -0.06000
C864        C  0.82120096  0.34594270  0.65659161    -0.09500
C865        C  0.84891378  0.32537107  0.66649139    -0.26100
S866        S  0.92513194  0.18919718  0.62004207    -0.03300
C867        C  0.91138103  0.16508329  0.58428048    -0.16700
C868        C  0.88333075  0.18488215  0.57482397    -0.14700
H869        H  0.82955455  0.24217052  0.57503053     0.20600
H870        H  0.90207970  0.26631088  0.66706781     0.16700
H871        H  0.86135731  0.33725355  0.68777208     0.19200
H872        H  0.87113560  0.17400226  0.55318890     0.12500
C873        C  0.87997176  0.78215235  0.89882095     0.16400
C874        C  0.85564674  0.74766243  0.89411206    -0.32600
C875        C  0.85497982  0.71990983  0.86519194     0.20800
C876        C  0.87761306  0.72609734  0.84205879     0.03000
C877        C  0.90204765  0.76030931  0.84686211    -0.22400
C878        C  0.90265407  0.78820334  0.87572587     0.12200
S879        S  0.88422501  0.82079227  0.93168846    -0.06000
C880        C  0.91679066  0.84563793  0.91406829    -0.09500
C881        C  0.92401983  0.82439724  0.88445009    -0.26100
S882        S  0.87264096  0.68919777  0.80855364    -0.03300
C883        C  0.83978742  0.66493533  0.82590869    -0.16700
C884        C  0.83314941  0.68477540  0.85604693    -0.14700
H885        H  0.83786607  0.74303409  0.91207523     0.20600
H886        H  0.91967206  0.76529286  0.82876329     0.16700
H887        H  0.94334696  0.83574153  0.86971929     0.19200
H888        H  0.81355283  0.67387304  0.87052661     0.12500
C889        C  0.88131558  0.23521449  0.89956451     0.16400
C890        C  0.85681758  0.26925767  0.89464001    -0.32600
C891        C  0.85575163  0.29591582  0.86533493     0.20800
C892        C  0.87818391  0.28917079  0.84204962     0.03000
C893        C  0.90282326  0.25548043  0.84708966    -0.22400
C894        C  0.90380596  0.22861767  0.87632103     0.12200
S895        S  0.88584765  0.19739924  0.93276095    -0.06000
C896        C  0.91819304  0.17200749  0.91501556    -0.09500
C897        C  0.92524271  0.19265805  0.88519002    -0.26100
S898        S  0.87274509  0.32482896  0.80809342    -0.03300
C899        C  0.84003658  0.34947462  0.82552170    -0.16700
C900        C  0.83371955  0.33050084  0.85595516    -0.14700
H901        H  0.83916773  0.27427670  0.91270503     0.20600
H902        H  0.92028001  0.25001659  0.82886812     0.16700
H903        H  0.94436012  0.18078148  0.87032019     0.19200
H904        H  0.81427576  0.34181319  0.87054035     0.12500
C905        C  0.60016566  0.78532406  0.87810788     0.16400
C906        C  0.60693682  0.75096474  0.85301726    -0.32600
C907        C  0.63432803  0.72273245  0.85505738     0.20800
C908        C  0.65416374  0.72860074  0.88084806     0.03000
C909        C  0.64733956  0.76279690  0.90596485    -0.22400
C910        C  0.61991390  0.79084671  0.90399709     0.12200
S911        S  0.56836677  0.82372232  0.87999110    -0.06000
C912        C  0.58183726  0.84745506  0.91603655    -0.09500
C913        C  0.60944299  0.82623617  0.92590758    -0.26100
S914        S  0.68616696  0.69077713  0.87891785    -0.03300
C915        C  0.67255796  0.66625735  0.84316648    -0.16700
C916        C  0.64477608  0.68695249  0.83333751    -0.14700
H917        H  0.59153295  0.74643182  0.83279457     0.20600
H918        H  0.66275373  0.76735065  0.92618419     0.16700
H919        H  0.62150492  0.83667535  0.94770292     0.19200
H920        H  0.63272544  0.67602076  0.81161720     0.12500
C921        C  0.83790115  0.73369740  0.62002053     0.16400
C922        C  0.84398115  0.76908902  0.59540351    -0.32600
C923        C  0.87213854  0.79503953  0.59624913     0.20800
C924        C  0.89320570  0.78653307  0.62065521     0.03000
C925        C  0.88711667  0.75118477  0.64527873    -0.22400
C926        C  0.85907476  0.72493802  0.64429135     0.12200
S927        S  0.80546284  0.69726673  0.62284308    -0.06000
C928        C  0.82080520  0.66952846  0.65682405    -0.09500
C929        C  0.84932901  0.68819598  0.66556891    -0.26100
S930        S  0.92585389  0.82233924  0.61759872    -0.03300
C931        C  0.91100173  0.84888880  0.58302836    -0.16700
C932        C  0.88231149  0.83067793  0.57444715    -0.14700
H933        H  0.82758186  0.77583298  0.57630559     0.20600
H934        H  0.90358805  0.74422759  0.66427571     0.16700
H935        H  0.86246745  0.67490623  0.68605068     0.19200
H936        H  0.86938274  0.84331192  0.55367019     0.12500
loop_ 
_geom_bond_atom_site_label_1 
_geom_bond_atom_site_label_2 
_geom_bond_distance 
_geom_bond_site_symmetry_2 
_ccdc_geom_bond_type 
C1           N19   1.354       .  A
C1           C38   1.454       .  S
C1          C146   1.472       .  S
N2           N19   1.328       .  A
N2           N24   1.320       .  A
N2          Co39   2.098   1_565  S
C3           N28   1.339       .  A
C3           C41   1.458       .  S
C3           H48   1.081       .  S
H4           C45   1.081       .  S
C5           N29   1.344       .  A
C5            C9   1.464       .  S
C5           H34   1.081       .  S
Co6          N14   2.081   1_545  S
Co6          N22   2.081       .  S
Co6         N492   2.074   1_545  S
Co6         N514   2.075       .  S
Co6        Cl518   2.445   1_554  S
N7           C45   1.340       .  A
N7           N14   1.319       .  A
N7         Co242   2.078   1_564  S
Co8          N11   2.077   1_545  S
Co8          N15   2.077       .  S
Co8         N241   2.078   1_545  S
Co8         N262   2.077       .  S
Co8        Cl752   2.449       .  S
C9           N47   1.347       .  A
C9          C178   1.471       .  S
N10          N17   1.322       .  A
N10          N40   1.326       .  A
N10         Co43   2.092   1_565  S
N11          N29   1.320       .  A
N11          N47   1.323       .  A
N12          C41   1.349       .  A
N12          N22   1.324       .  A
H13          C38   1.081       .  S
N14          N35   1.324       .  A
N15          N33   1.320       .  A
N15          N20   1.323       .  A
C16          N20   1.347       .  A
C16          C44   1.463       .  S
C16         C194   1.470       .  S
N17          C32   1.342       .  A
N17        Co273   2.091   1_565  S
C18          N46   1.337       .  A
C18          C21   1.454       .  S
C18          H52   1.081       .  S
C21          N42   1.353       .  A
C21         C114   1.472       .  S
N22          N28   1.319       .  A
N23          C49   1.342       .  A
N23          N25   1.322       .  A
N23        Co273   2.092       .  S
N24          C38   1.337       .  A
N24        Co474   2.074   1_465  S
N25          N53   1.325       .  A
N25         Co43   2.091       .  S
H26          C49   1.081       .  S
H27          C44   1.081       .  S
N28        Co242   2.077   1_554  S
N29        Co511   2.094   1_565  S
N30          N42   1.328       .  A
N30          N46   1.320       .  A
N30         Co39   2.098       .  S
C31          N35   1.348       .  A
C31          C45   1.459       .  S
C31         C229   1.467       .  S
C32          C51   1.461       .  S
C32          H36   1.081       .  S
N33          C44   1.344       .  A
N33        Co511   2.094       .  S
C37          N53   1.350       .  A
C37          C49   1.461       .  S
C37         C130   1.474       .  S
Co39        N251   2.091   1_544  S
Co39        N257   2.092   1_554  S
Co39        Cl50   2.457   1_454  S
N40          C51   1.350       .  A
C41         C165   1.467       .  S
Co43        N497   2.094   1_445  S
Co43        N501   2.094   1_455  S
Co43       Cl284   2.455   1_455  S
N46        Co474   2.075   1_455  S
Cl50       Co474   2.445   1_556  S
Cl50       Co710   2.449       .  S
Cl50       Co277   2.455   1_655  S
C51         C210   1.475       .  S
C54          N72   1.349       .  A
C54          C91   1.457       .  S
C54         C226   1.467       .  S
N55          N72   1.324       .  A
N55          N77   1.319       .  A
N55         Co92   2.082       .  S
C56          N81   1.344       .  A
C56          C94   1.463       .  S
C56         H101   1.081       .  S
H57          C98   1.081       .  S
C58          N82   1.342       .  A
C58          C62   1.461       .  S
C58          H87   1.081       .  S
Co59         N77   2.077       .  S
Co59         N67   2.076       .  S
Co59         N99   2.078       .  S
Co59         N75   2.076       .  S
Co59       Cl103   2.448       .  S
N60          C98   1.345       .  A
N60          N67   1.320       .  A
N60         Co61   2.094       .  S
Co61         N64   2.091       .  S
Co61         N81   2.093       .  S
Co61         N68   2.092       .  S
Co61       Cl103   2.455       .  S
C62         N100   1.350       .  A
C62         C213   1.475       .  S
N63          N70   1.320       .  A
N63          N93   1.327       .  A
N63         Co96   2.097       .  S
N64          N82   1.322       .  A
N64         N100   1.326       .  A
N65          C94   1.346       .  A
N65          N75   1.322       .  A
H66          C91   1.081       .  S
N67          N88   1.322       .  A
N68          N86   1.321       .  A
N68          N73   1.326       .  A
C69          N73   1.350       .  A
C69          C97   1.460       .  S
C69         C133   1.474       .  S
N70          C85   1.337       .  A
N70         Co92   2.074       .  S
C71          N99   1.340       .  A
C71          C74   1.457       .  S
C71         H105   1.081       .  S
C74          N95   1.349       .  A
C74         C162   1.467       .  S
N75          N81   1.320       .  A
N76         C102   1.338       .  A
N76          N78   1.320       .  A
N76         Co92   2.074       .  S
N77          C91   1.340       .  A
N78         N106   1.327       .  A
N78         Co96   2.096       .  S
H79         C102   1.082       .  S
H80          C97   1.081       .  S
N82         Co96   2.092       .  S
N83          N95   1.324       .  A
N83          N99   1.319       .  A
N83         Co92   2.081       .  S
C84          N88   1.346       .  A
C84          C98   1.464       .  S
C84         C149   1.470       .  S
C85         C104   1.454       .  S
C85          H89   1.081       .  S
N86          C97   1.342       .  A
N86         Co96   2.090       .  S
C90         N106   1.353       .  A
C90         C102   1.455       .  S
C90         C197   1.471       .  S
Co92       Cl103   2.446       .  S
N93         C104   1.353       .  A
C94         C117   1.470       .  S
Co96       Cl103   2.456       .  S
C104        C181   1.471       .  S
C107        S113   1.704       .  A
C107        C112   1.387       .  A
C107        C108   1.402       .  A
C108        H119   1.083       .  S
C108        C109   1.401       .  A
C109        C118   1.372       .  A
C109        C110   1.387       .  A
C110        S116   1.705       .  A
C110        C111   1.402       .  A
C111        H120   1.083       .  S
C111        C112   1.402       .  A
C112        C115   1.373       .  A
S113        C114   1.724       .  A
C114        C115   1.386       .  A
C115        H121   1.083       .  S
S116        C117   1.723       .  A
C117        C118   1.385       .  A
C118        H122   1.083       .  S
C123        S129   1.709       .  A
C123        C128   1.387       .  A
C123        C124   1.403       .  A
C124        H135   1.083       .  S
C124        C125   1.403       .  A
C125        C134   1.372       .  A
C125        C126   1.387       .  A
C126        S132   1.709       .  A
C126        C127   1.403       .  A
C127        H136   1.083       .  S
C127        C128   1.404       .  A
C128        C131   1.372       .  A
S129        C130   1.723       .  A
C130        C131   1.387       .  A
C131        H137   1.083       .  S
S132        C133   1.723       .  A
C133        C134   1.387       .  A
C134        H138   1.083       .  S
C139        S145   1.704       .  A
C139        C144   1.387       .  A
C139        C140   1.402       .  A
C140        H151   1.083       .  S
C140        C141   1.402       .  A
C141        C150   1.373       .  A
C141        C142   1.387       .  A
C142        S148   1.704       .  A
C142        C143   1.402       .  A
C143        H152   1.083       .  S
C143        C144   1.402       .  A
C144        C147   1.373       .  A
S145        C146   1.724       .  A
C146        C147   1.385       .  A
C147        H153   1.083       .  S
S148        C149   1.723       .  A
C149        C150   1.385       .  A
C150        H154   1.083       .  S
C155        S161   1.706       .  A
C155        C160   1.387       .  A
C155        C156   1.400       .  A
C156        H167   1.084       .  S
C156        C157   1.401       .  A
C157        C166   1.368       .  A
C157        C158   1.387       .  A
C158        S164   1.706       .  A
C158        C159   1.400       .  A
C159        H168   1.083       .  S
C159        C160   1.402       .  A
C160        C163   1.368       .  A
S161        C162   1.721       .  A
C162        C163   1.385       .  A
C163        H169   1.083       .  S
S164        C165   1.721       .  A
C165        C166   1.385       .  A
C166        H170   1.083       .  S
C171        S177   1.705       .  A
C171        C176   1.387       .  A
C171        C172   1.402       .  A
C172        H183   1.083       .  S
C172        C173   1.402       .  A
C173        C182   1.372       .  A
C173        C174   1.387       .  A
C174        S180   1.704       .  A
C174        C175   1.402       .  A
C175        H184   1.083       .  S
C175        C176   1.402       .  A
C176        C179   1.372       .  A
S177        C178   1.723       .  A
C178        C179   1.385       .  A
C179        H185   1.083       .  S
S180        C181   1.723       .  A
C181        C182   1.385       .  A
C182        H186   1.083       .  S
C187        S193   1.705       .  A
C187        C192   1.387       .  A
C187        C188   1.402       .  A
C188        H199   1.083       .  S
C188        C189   1.402       .  A
C189        C198   1.372       .  A
C189        C190   1.387       .  A
C190        S196   1.705       .  A
C190        C191   1.402       .  A
C191        H200   1.083       .  S
C191        C192   1.402       .  A
C192        C195   1.372       .  A
S193        C194   1.723       .  A
C194        C195   1.385       .  A
C195        H201   1.083       .  S
S196        C197   1.723       .  A
C197        C198   1.385       .  A
C198        H202   1.083       .  S
C203        S209   1.710       .  A
C203        C208   1.387       .  A
C203        C204   1.404       .  A
C204        H215   1.083       .  S
C204        C205   1.405       .  A
C205        C214   1.373       .  A
C205        C206   1.387       .  A
C206        S212   1.709       .  A
C206        C207   1.402       .  A
C207        H216   1.083       .  S
C207        C208   1.403       .  A
C208        C211   1.372       .  A
S209        C210   1.724       .  A
C210        C211   1.387       .  A
C211        H217   1.083       .  S
S212        C213   1.723       .  A
C213        C214   1.388       .  A
C214        H218   1.083       .  S
C219        S225   1.706       .  A
C219        C224   1.387       .  A
C219        C220   1.400       .  A
C220        H231   1.083       .  S
C220        C221   1.401       .  A
C221        C230   1.369       .  A
C221        C222   1.387       .  A
C222        S228   1.705       .  A
C222        C223   1.400       .  A
C223        H232   1.083       .  S
C223        C224   1.401       .  A
C224        C227   1.368       .  A
S225        C226   1.722       .  A
C226        C227   1.384       .  A
C227        H233   1.083       .  S
S228        C229   1.721       .  A
C229        C230   1.385       .  A
C230        H234   1.083       .  S
C235        N253   1.354       .  A
C235        C272   1.454       .  S
C235        C380   1.472       .  S
N236        N253   1.328       .  A
N236        N258   1.320       .  A
N236       Co273   2.098   1_565  S
C237        N262   1.339       .  A
C237        C275   1.458       .  S
C237        H282   1.081       .  S
H238        C279   1.081       .  S
C239        N263   1.344       .  A
C239        C243   1.464       .  S
C239        H268   1.081       .  S
Co240       N726   2.074   1_545  S
Co240       N248   2.081   1_545  S
Co240       N748   2.075       .  S
Co240       N256   2.081       .  S
Co240      Cl752   2.445       .  S
N241        C279   1.340       .  A
N241        N248   1.319       .  A
Co242       N245   2.077   1_545  S
Co242       N249   2.077       .  S
Co242      Cl518   2.449       .  S
C243        N281   1.347       .  A
C243        C412   1.471       .  S
N244        N251   1.322       .  A
N244        N274   1.326       .  A
N244       Co277   2.092   1_565  S
N245        N263   1.320       .  A
N245        N281   1.323       .  A
N246        C275   1.349       .  A
N246        N256   1.324       .  A
H247        C272   1.082       .  S
N248        N269   1.324       .  A
N249        N267   1.320       .  A
N249        N254   1.323       .  A
C250        N254   1.347       .  A
C250        C278   1.463       .  S
C250        C428   1.470       .  S
N251        C266   1.342       .  A
C252        N280   1.337       .  A
C252        C255   1.454       .  S
C252        H286   1.081       .  S
C255        N276   1.353       .  A
C255        C348   1.472       .  S
N256        N262   1.319       .  A
N257        C283   1.342       .  A
N257        N259   1.322       .  A
N258        C272   1.337       .  A
N258       Co708   2.074   1_465  S
N259        N287   1.325       .  A
N259       Co277   2.091       .  S
H260        C283   1.081       .  S
H261        C278   1.081       .  S
N263       Co745   2.094   1_565  S
N264        N276   1.328       .  A
N264        N280   1.320       .  A
N264       Co273   2.098       .  S
C265        N269   1.348       .  A
C265        C279   1.459       .  S
C265        C463   1.467       .  S
C266        C285   1.461       .  S
C266        H270   1.081       .  S
N267        C278   1.344       .  A
N267       Co745   2.094       .  S
C271        N287   1.350       .  A
C271        C283   1.461       .  S
C271        C364   1.474       .  S
Co273      Cl284   2.457   1_455  S
N274        C285   1.350       .  A
C275        C399   1.467       .  S
Co277       N731   2.094   1_445  S
Co277       N735   2.094   1_455  S
N280       Co708   2.075   1_455  S
Cl284      Co708   2.445       .  S
Cl284      Co476   2.449       .  S
C285        C444   1.475       .  S
C288        N306   1.349       .  A
C288        C325   1.457       .  S
C288        C460   1.467       .  S
N289        N306   1.324       .  A
N289        N311   1.319       .  A
N289       Co326   2.082       .  S
C290        N315   1.344       .  A
C290        C328   1.463       .  S
C290        H335   1.081       .  S
H291        C332   1.081       .  S
C292        N316   1.342       .  A
C292        C296   1.461       .  S
C292        H321   1.082       .  S
Co293       N311   2.077       .  S
Co293       N301   2.076       .  S
Co293       N333   2.078       .  S
Co293       N309   2.076       .  S
Co293      Cl337   2.448       .  S
N294        C332   1.345       .  A
N294        N301   1.320       .  A
N294       Co295   2.094       .  S
Co295       N298   2.091       .  S
Co295       N315   2.093       .  S
Co295       N302   2.092       .  S
Co295      Cl337   2.455       .  S
C296        N334   1.350       .  A
C296        C447   1.475       .  S
N297        N304   1.320       .  A
N297        N327   1.327       .  A
N297       Co330   2.097       .  S
N298        N316   1.322       .  A
N298        N334   1.326       .  A
N299        C328   1.346       .  A
N299        N309   1.322       .  A
H300        C325   1.082       .  S
N301        N322   1.322       .  A
N302        N320   1.321       .  A
N302        N307   1.326       .  A
C303        N307   1.350       .  A
C303        C331   1.460       .  S
C303        C367   1.474       .  S
N304        C319   1.337       .  A
N304       Co326   2.074       .  S
C305        N333   1.340       .  A
C305        C308   1.457       .  S
C305        H339   1.082       .  S
C308        N329   1.349       .  A
C308        C396   1.467       .  S
N309        N315   1.320       .  A
N310        C336   1.338       .  A
N310        N312   1.320       .  A
N310       Co326   2.074       .  S
N311        C325   1.340       .  A
N312        N340   1.327       .  A
N312       Co330   2.096       .  S
H313        C336   1.081       .  S
H314        C331   1.081       .  S
N316       Co330   2.092       .  S
N317        N329   1.324       .  A
N317        N333   1.319       .  A
N317       Co326   2.081       .  S
C318        N322   1.346       .  A
C318        C332   1.464       .  S
C318        C383   1.470       .  S
C319        C338   1.454       .  S
C319        H323   1.082       .  S
N320        C331   1.342       .  A
N320       Co330   2.090       .  S
C324        N340   1.353       .  A
C324        C336   1.455       .  S
C324        C431   1.471       .  S
Co326      Cl337   2.446       .  S
N327        C338   1.353       .  A
C328        C351   1.470       .  S
Co330      Cl337   2.456       .  S
C338        C415   1.471       .  S
C341        S347   1.704       .  A
C341        C346   1.387       .  A
C341        C342   1.402       .  A
C342        H353   1.083       .  S
C342        C343   1.401       .  A
C343        C352   1.372       .  A
C343        C344   1.387       .  A
C344        S350   1.705       .  A
C344        C345   1.402       .  A
C345        H354   1.083       .  S
C345        C346   1.402       .  A
C346        C349   1.373       .  A
S347        C348   1.724       .  A
C348        C349   1.386       .  A
C349        H355   1.083       .  S
S350        C351   1.723       .  A
C351        C352   1.385       .  A
C352        H356   1.083       .  S
C357        S363   1.709       .  A
C357        C362   1.387       .  A
C357        C358   1.403       .  A
C358        H369   1.083       .  S
C358        C359   1.403       .  A
C359        C368   1.372       .  A
C359        C360   1.387       .  A
C360        S366   1.709       .  A
C360        C361   1.403       .  A
C361        H370   1.083       .  S
C361        C362   1.404       .  A
C362        C365   1.372       .  A
S363        C364   1.723       .  A
C364        C365   1.387       .  A
C365        H371   1.083       .  S
S366        C367   1.723       .  A
C367        C368   1.387       .  A
C368        H372   1.083       .  S
C373        S379   1.704       .  A
C373        C378   1.387       .  A
C373        C374   1.402       .  A
C374        H385   1.083       .  S
C374        C375   1.402       .  A
C375        C384   1.373       .  A
C375        C376   1.387       .  A
C376        S382   1.704       .  A
C376        C377   1.402       .  A
C377        H386   1.083       .  S
C377        C378   1.402       .  A
C378        C381   1.373       .  A
S379        C380   1.724       .  A
C380        C381   1.385       .  A
C381        H387   1.083       .  S
S382        C383   1.723       .  A
C383        C384   1.385       .  A
C384        H388   1.083       .  S
C389        S395   1.706       .  A
C389        C394   1.387       .  A
C389        C390   1.400       .  A
C390        H401   1.084       .  S
C390        C391   1.401       .  A
C391        C400   1.368       .  A
C391        C392   1.387       .  A
C392        S398   1.706       .  A
C392        C393   1.400       .  A
C393        H402   1.083       .  S
C393        C394   1.402       .  A
C394        C397   1.368       .  A
S395        C396   1.721       .  A
C396        C397   1.385       .  A
C397        H403   1.083       .  S
S398        C399   1.721       .  A
C399        C400   1.385       .  A
C400        H404   1.083       .  S
C405        S411   1.705       .  A
C405        C410   1.387       .  A
C405        C406   1.402       .  A
C406        H417   1.083       .  S
C406        C407   1.402       .  A
C407        C416   1.372       .  A
C407        C408   1.387       .  A
C408        S414   1.704       .  A
C408        C409   1.402       .  A
C409        H418   1.083       .  S
C409        C410   1.402       .  A
C410        C413   1.372       .  A
S411        C412   1.723       .  A
C412        C413   1.385       .  A
C413        H419   1.083       .  S
S414        C415   1.723       .  A
C415        C416   1.385       .  A
C416        H420   1.083       .  S
C421        S427   1.705       .  A
C421        C426   1.387       .  A
C421        C422   1.402       .  A
C422        H433   1.083       .  S
C422        C423   1.402       .  A
C423        C432   1.372       .  A
C423        C424   1.387       .  A
C424        S430   1.705       .  A
C424        C425   1.402       .  A
C425        H434   1.083       .  S
C425        C426   1.402       .  A
C426        C429   1.372       .  A
S427        C428   1.723       .  A
C428        C429   1.385       .  A
C429        H435   1.083       .  S
S430        C431   1.723       .  A
C431        C432   1.385       .  A
C432        H436   1.083       .  S
C437        S443   1.710       .  A
C437        C442   1.387       .  A
C437        C438   1.404       .  A
C438        H449   1.083       .  S
C438        C439   1.405       .  A
C439        C448   1.373       .  A
C439        C440   1.387       .  A
C440        S446   1.709       .  A
C440        C441   1.402       .  A
C441        H450   1.083       .  S
C441        C442   1.403       .  A
C442        C445   1.372       .  A
S443        C444   1.724       .  A
C444        C445   1.387       .  A
C445        H451   1.083       .  S
S446        C447   1.723       .  A
C447        C448   1.388       .  A
C448        H452   1.083       .  S
C453        S459   1.706       .  A
C453        C458   1.387       .  A
C453        C454   1.400       .  A
C454        H465   1.083       .  S
C454        C455   1.401       .  A
C455        C464   1.369       .  A
C455        C456   1.387       .  A
C456        S462   1.705       .  A
C456        C457   1.400       .  A
C457        H466   1.083       .  S
C457        C458   1.401       .  A
C458        C461   1.368       .  A
S459        C460   1.722       .  A
C460        C461   1.384       .  A
C461        H467   1.083       .  S
S462        C463   1.721       .  A
C463        C464   1.385       .  A
C464        H468   1.083       .  S
C469        N487   1.354       .  A
C469        C506   1.454       .  S
C469        C614   1.472       .  S
N470        N487   1.328       .  A
N470        N492   1.320       .  A
N470       Co507   2.098   1_565  S
C471        N496   1.339       .  A
C471        C509   1.458       .  S
C471        H516   1.081       .  S
H472        C513   1.081       .  S
C473        N497   1.344       .  A
C473        C477   1.464       .  S
C473        H502   1.081       .  S
Co474       N482   2.081   1_545  S
Co474       N490   2.081       .  S
N475        C513   1.340       .  A
N475        N482   1.319       .  A
N475       Co710   2.078   1_564  S
Co476       N709   2.078   1_545  S
Co476       N479   2.077   1_545  S
Co476       N730   2.077       .  S
Co476       N483   2.077       .  S
C477        N515   1.347       .  A
C477        C646   1.471       .  S
N478        N485   1.322       .  A
N478        N508   1.326       .  A
N478       Co511   2.092   1_565  S
N479        N497   1.320       .  A
N479        N515   1.323       .  A
N480        C509   1.349       .  A
N480        N490   1.324       .  A
H481        C506   1.081       .  S
N482        N503   1.324       .  A
N483        N501   1.320       .  A
N483        N488   1.323       .  A
C484        N488   1.347       .  A
C484        C512   1.463       .  S
C484        C662   1.470       .  S
N485        C500   1.342       .  A
N485       Co741   2.091   1_565  S
C486        N514   1.337       .  A
C486        C489   1.454       .  S
C486        H520   1.081       .  S
C489        N510   1.353       .  A
C489        C582   1.472       .  S
N490        N496   1.319       .  A
N491        C517   1.342       .  A
N491        N493   1.322       .  A
N491       Co741   2.092       .  S
N492        C506   1.337       .  A
N493        N521   1.325       .  A
N493       Co511   2.091       .  S
H494        C517   1.081       .  S
H495        C512   1.081       .  S
N496       Co710   2.077   1_554  S
N498        N510   1.328       .  A
N498        N514   1.320       .  A
N498       Co507   2.098       .  S
C499        N503   1.348       .  A
C499        C513   1.459       .  S
C499        C697   1.467       .  S
C500        C519   1.461       .  S
C500        H504   1.081       .  S
N501        C512   1.344       .  A
C505        N521   1.350       .  A
C505        C517   1.461       .  S
C505        C598   1.474       .  S
Co507       N719   2.091   1_544  S
Co507       N725   2.092   1_554  S
Co507      Cl518   2.457   1_554  S
N508        C519   1.350       .  A
C509        C633   1.467       .  S
Co511      Cl752   2.455       .  S
Cl518      Co745   2.455       .  S
C519        C678   1.475       .  S
C522        N540   1.349       .  A
C522        C559   1.457       .  S
C522        C694   1.467       .  S
N523        N540   1.324       .  A
N523        N545   1.319       .  A
N523       Co560   2.082       .  S
C524        N549   1.344       .  A
C524        C562   1.463       .  S
C524        H569   1.081       .  S
H525        C566   1.081       .  S
C526        N550   1.342       .  A
C526        C530   1.461       .  S
C526        H555   1.081       .  S
Co527       N545   2.077       .  S
Co527       N535   2.076       .  S
Co527       N567   2.078       .  S
Co527       N543   2.076       .  S
Co527      Cl571   2.448       .  S
N528        C566   1.345       .  A
N528        N535   1.320       .  A
N528       Co529   2.094       .  S
Co529       N532   2.091       .  S
Co529       N549   2.093       .  S
Co529       N536   2.092       .  S
Co529      Cl571   2.455       .  S
C530        N568   1.350       .  A
C530        C681   1.475       .  S
N531        N538   1.320       .  A
N531        N561   1.327       .  A
N531       Co564   2.097       .  S
N532        N550   1.322       .  A
N532        N568   1.326       .  A
N533        C562   1.346       .  A
N533        N543   1.322       .  A
H534        C559   1.081       .  S
N535        N556   1.322       .  A
N536        N554   1.321       .  A
N536        N541   1.326       .  A
C537        N541   1.350       .  A
C537        C565   1.460       .  S
C537        C601   1.474       .  S
N538        C553   1.337       .  A
N538       Co560   2.074       .  S
C539        N567   1.340       .  A
C539        C542   1.457       .  S
C539        H573   1.081       .  S
C542        N563   1.349       .  A
C542        C630   1.467       .  S
N543        N549   1.320       .  A
N544        C570   1.338       .  A
N544        N546   1.320       .  A
N544       Co560   2.074       .  S
N545        C559   1.340       .  A
N546        N574   1.327       .  A
N546       Co564   2.096       .  S
H547        C570   1.082       .  S
H548        C565   1.082       .  S
N550       Co564   2.092       .  S
N551        N563   1.324       .  A
N551        N567   1.319       .  A
N551       Co560   2.081       .  S
C552        N556   1.346       .  A
C552        C566   1.464       .  S
C552        C617   1.470       .  S
C553        C572   1.454       .  S
C553        H557   1.081       .  S
N554        C565   1.342       .  A
N554       Co564   2.090       .  S
C558        N574   1.353       .  A
C558        C570   1.455       .  S
C558        C665   1.471       .  S
Co560      Cl571   2.446       .  S
N561        C572   1.353       .  A
C562        C585   1.470       .  S
Co564      Cl571   2.456       .  S
C572        C649   1.471       .  S
C575        S581   1.704       .  A
C575        C580   1.387       .  A
C575        C576   1.402       .  A
C576        H587   1.083       .  S
C576        C577   1.401       .  A
C577        C586   1.372       .  A
C577        C578   1.387       .  A
C578        S584   1.705       .  A
C578        C579   1.402       .  A
C579        H588   1.083       .  S
C579        C580   1.402       .  A
C580        C583   1.373       .  A
S581        C582   1.724       .  A
C582        C583   1.386       .  A
C583        H589   1.083       .  S
S584        C585   1.723       .  A
C585        C586   1.385       .  A
C586        H590   1.083       .  S
C591        S597   1.709       .  A
C591        C596   1.387       .  A
C591        C592   1.403       .  A
C592        H603   1.083       .  S
C592        C593   1.403       .  A
C593        C602   1.372       .  A
C593        C594   1.387       .  A
C594        S600   1.709       .  A
C594        C595   1.403       .  A
C595        H604   1.083       .  S
C595        C596   1.404       .  A
C596        C599   1.372       .  A
S597        C598   1.723       .  A
C598        C599   1.387       .  A
C599        H605   1.083       .  S
S600        C601   1.723       .  A
C601        C602   1.387       .  A
C602        H606   1.083       .  S
C607        S613   1.704       .  A
C607        C612   1.387       .  A
C607        C608   1.402       .  A
C608        H619   1.083       .  S
C608        C609   1.402       .  A
C609        C618   1.373       .  A
C609        C610   1.387       .  A
C610        S616   1.704       .  A
C610        C611   1.402       .  A
C611        H620   1.083       .  S
C611        C612   1.402       .  A
C612        C615   1.373       .  A
S613        C614   1.724       .  A
C614        C615   1.385       .  A
C615        H621   1.083       .  S
S616        C617   1.723       .  A
C617        C618   1.385       .  A
C618        H622   1.083       .  S
C623        S629   1.706       .  A
C623        C628   1.387       .  A
C623        C624   1.400       .  A
C624        H635   1.084       .  S
C624        C625   1.401       .  A
C625        C634   1.368       .  A
C625        C626   1.387       .  A
C626        S632   1.706       .  A
C626        C627   1.400       .  A
C627        H636   1.083       .  S
C627        C628   1.402       .  A
C628        C631   1.368       .  A
S629        C630   1.721       .  A
C630        C631   1.385       .  A
C631        H637   1.083       .  S
S632        C633   1.721       .  A
C633        C634   1.385       .  A
C634        H638   1.083       .  S
C639        S645   1.705       .  A
C639        C644   1.387       .  A
C639        C640   1.402       .  A
C640        H651   1.083       .  S
C640        C641   1.402       .  A
C641        C650   1.372       .  A
C641        C642   1.387       .  A
C642        S648   1.704       .  A
C642        C643   1.402       .  A
C643        H652   1.083       .  S
C643        C644   1.402       .  A
C644        C647   1.372       .  A
S645        C646   1.723       .  A
C646        C647   1.385       .  A
C647        H653   1.083       .  S
S648        C649   1.723       .  A
C649        C650   1.385       .  A
C650        H654   1.083       .  S
C655        S661   1.705       .  A
C655        C660   1.387       .  A
C655        C656   1.402       .  A
C656        H667   1.083       .  S
C656        C657   1.402       .  A
C657        C666   1.372       .  A
C657        C658   1.387       .  A
C658        S664   1.705       .  A
C658        C659   1.402       .  A
C659        H668   1.083       .  S
C659        C660   1.402       .  A
C660        C663   1.372       .  A
S661        C662   1.723       .  A
C662        C663   1.385       .  A
C663        H669   1.083       .  S
S664        C665   1.723       .  A
C665        C666   1.385       .  A
C666        H670   1.083       .  S
C671        S677   1.710       .  A
C671        C676   1.387       .  A
C671        C672   1.404       .  A
C672        H683   1.083       .  S
C672        C673   1.405       .  A
C673        C682   1.373       .  A
C673        C674   1.387       .  A
C674        S680   1.709       .  A
C674        C675   1.402       .  A
C675        H684   1.083       .  S
C675        C676   1.403       .  A
C676        C679   1.372       .  A
S677        C678   1.724       .  A
C678        C679   1.387       .  A
C679        H685   1.083       .  S
S680        C681   1.723       .  A
C681        C682   1.388       .  A
C682        H686   1.083       .  S
C687        S693   1.706       .  A
C687        C692   1.387       .  A
C687        C688   1.400       .  A
C688        H699   1.083       .  S
C688        C689   1.401       .  A
C689        C698   1.369       .  A
C689        C690   1.387       .  A
C690        S696   1.705       .  A
C690        C691   1.400       .  A
C691        H700   1.083       .  S
C691        C692   1.401       .  A
C692        C695   1.368       .  A
S693        C694   1.722       .  A
C694        C695   1.384       .  A
C695        H701   1.083       .  S
S696        C697   1.721       .  A
C697        C698   1.385       .  A
C698        H702   1.083       .  S
C703        N721   1.354       .  A
C703        C740   1.454       .  S
C703        C848   1.472       .  S
N704        N721   1.328       .  A
N704        N726   1.320       .  A
N704       Co741   2.098   1_565  S
C705        N730   1.339       .  A
C705        C743   1.458       .  S
C705        H750   1.081       .  S
H706        C747   1.081       .  S
C707        N731   1.344       .  A
C707        C711   1.464       .  S
C707        H736   1.081       .  S
Co708       N716   2.081   1_545  S
Co708       N724   2.081       .  S
N709        C747   1.340       .  A
N709        N716   1.319       .  A
Co710       N713   2.077   1_545  S
Co710       N717   2.077       .  S
C711        N749   1.347       .  A
C711        C880   1.471       .  S
N712        N719   1.322       .  A
N712        N742   1.326       .  A
N712       Co745   2.092   1_565  S
N713        N731   1.320       .  A
N713        N749   1.323       .  A
N714        C743   1.349       .  A
N714        N724   1.324       .  A
H715        C740   1.081       .  S
N716        N737   1.324       .  A
N717        N735   1.320       .  A
N717        N722   1.323       .  A
C718        N722   1.347       .  A
C718        C746   1.463       .  S
C718        C896   1.470       .  S
N719        C734   1.342       .  A
C720        N748   1.337       .  A
C720        C723   1.454       .  S
C720        H754   1.081       .  S
C723        N744   1.353       .  A
C723        C816   1.472       .  S
N724        N730   1.319       .  A
N725        C751   1.342       .  A
N725        N727   1.322       .  A
N726        C740   1.337       .  A
N727        N755   1.325       .  A
N727       Co745   2.091       .  S
H728        C751   1.081       .  S
H729        C746   1.081       .  S
N732        N744   1.328       .  A
N732        N748   1.320       .  A
N732       Co741   2.098       .  S
C733        N737   1.348       .  A
C733        C747   1.459       .  S
C733        C931   1.467       .  S
C734        C753   1.461       .  S
C734        H738   1.081       .  S
N735        C746   1.344       .  A
C739        N755   1.350       .  A
C739        C751   1.461       .  S
C739        C832   1.474       .  S
Co741      Cl752   2.457       .  S
N742        C753   1.350       .  A
C743        C867   1.467       .  S
C753        C912   1.475       .  S
C756        N774   1.349       .  A
C756        C793   1.457       .  S
C756        C928   1.467       .  S
N757        N774   1.324       .  A
N757        N779   1.319       .  A
N757       Co794   2.082       .  S
C758        N783   1.344       .  A
C758        C796   1.463       .  S
C758        H803   1.081       .  S
H759        C800   1.081       .  S
C760        N784   1.342       .  A
C760        C764   1.461       .  S
C760        H789   1.081       .  S
Co761       N779   2.077       .  S
Co761       N769   2.076       .  S
Co761       N801   2.078       .  S
Co761       N777   2.076       .  S
Co761      Cl805   2.448       .  S
N762        C800   1.345       .  A
N762        N769   1.320       .  A
N762       Co763   2.094       .  S
Co763       N766   2.091       .  S
Co763       N783   2.093       .  S
Co763       N770   2.092       .  S
Co763      Cl805   2.455       .  S
C764        N802   1.350       .  A
C764        C915   1.475       .  S
N765        N772   1.320       .  A
N765        N795   1.327       .  A
N765       Co798   2.097       .  S
N766        N784   1.322       .  A
N766        N802   1.326       .  A
N767        C796   1.346       .  A
N767        N777   1.322       .  A
H768        C793   1.081       .  S
N769        N790   1.322       .  A
N770        N788   1.321       .  A
N770        N775   1.326       .  A
C771        N775   1.350       .  A
C771        C799   1.460       .  S
C771        C835   1.474       .  S
N772        C787   1.337       .  A
N772       Co794   2.074       .  S
C773        N801   1.340       .  A
C773        C776   1.457       .  S
C773        H807   1.082       .  S
C776        N797   1.349       .  A
C776        C864   1.467       .  S
N777        N783   1.320       .  A
N778        C804   1.338       .  A
N778        N780   1.320       .  A
N778       Co794   2.074       .  S
N779        C793   1.340       .  A
N780        N808   1.327       .  A
N780       Co798   2.096       .  S
H781        C804   1.082       .  S
H782        C799   1.081       .  S
N784       Co798   2.092       .  S
N785        N797   1.324       .  A
N785        N801   1.319       .  A
N785       Co794   2.081       .  S
C786        N790   1.346       .  A
C786        C800   1.464       .  S
C786        C851   1.470       .  S
C787        C806   1.454       .  S
C787        H791   1.082       .  S
N788        C799   1.342       .  A
N788       Co798   2.090       .  S
C792        N808   1.353       .  A
C792        C804   1.455       .  S
C792        C899   1.471       .  S
Co794      Cl805   2.446       .  S
N795        C806   1.353       .  A
C796        C819   1.470       .  S
Co798      Cl805   2.456       .  S
C806        C883   1.471       .  S
C809        S815   1.704       .  A
C809        C814   1.387       .  A
C809        C810   1.402       .  A
C810        H821   1.083       .  S
C810        C811   1.401       .  A
C811        C820   1.372       .  A
C811        C812   1.387       .  A
C812        S818   1.705       .  A
C812        C813   1.402       .  A
C813        H822   1.083       .  S
C813        C814   1.402       .  A
C814        C817   1.373       .  A
S815        C816   1.724       .  A
C816        C817   1.386       .  A
C817        H823   1.083       .  S
S818        C819   1.723       .  A
C819        C820   1.385       .  A
C820        H824   1.083       .  S
C825        S831   1.709       .  A
C825        C830   1.387       .  A
C825        C826   1.403       .  A
C826        H837   1.083       .  S
C826        C827   1.403       .  A
C827        C836   1.372       .  A
C827        C828   1.387       .  A
C828        S834   1.709       .  A
C828        C829   1.403       .  A
C829        H838   1.083       .  S
C829        C830   1.404       .  A
C830        C833   1.372       .  A
S831        C832   1.723       .  A
C832        C833   1.387       .  A
C833        H839   1.083       .  S
S834        C835   1.723       .  A
C835        C836   1.387       .  A
C836        H840   1.083       .  S
C841        S847   1.704       .  A
C841        C846   1.387       .  A
C841        C842   1.402       .  A
C842        H853   1.083       .  S
C842        C843   1.402       .  A
C843        C852   1.373       .  A
C843        C844   1.387       .  A
C844        S850   1.704       .  A
C844        C845   1.402       .  A
C845        H854   1.083       .  S
C845        C846   1.402       .  A
C846        C849   1.373       .  A
S847        C848   1.724       .  A
C848        C849   1.385       .  A
C849        H855   1.083       .  S
S850        C851   1.723       .  A
C851        C852   1.385       .  A
C852        H856   1.083       .  S
C857        S863   1.706       .  A
C857        C862   1.387       .  A
C857        C858   1.400       .  A
C858        H869   1.084       .  S
C858        C859   1.401       .  A
C859        C868   1.368       .  A
C859        C860   1.387       .  A
C860        S866   1.706       .  A
C860        C861   1.400       .  A
C861        H870   1.083       .  S
C861        C862   1.402       .  A
C862        C865   1.368       .  A
S863        C864   1.721       .  A
C864        C865   1.385       .  A
C865        H871   1.083       .  S
S866        C867   1.721       .  A
C867        C868   1.385       .  A
C868        H872   1.083       .  S
C873        S879   1.705       .  A
C873        C878   1.387       .  A
C873        C874   1.402       .  A
C874        H885   1.083       .  S
C874        C875   1.402       .  A
C875        C884   1.372       .  A
C875        C876   1.387       .  A
C876        S882   1.704       .  A
C876        C877   1.402       .  A
C877        H886   1.083       .  S
C877        C878   1.402       .  A
C878        C881   1.372       .  A
S879        C880   1.723       .  A
C880        C881   1.385       .  A
C881        H887   1.083       .  S
S882        C883   1.723       .  A
C883        C884   1.385       .  A
C884        H888   1.083       .  S
C889        S895   1.705       .  A
C889        C894   1.387       .  A
C889        C890   1.402       .  A
C890        H901   1.083       .  S
C890        C891   1.402       .  A
C891        C900   1.372       .  A
C891        C892   1.387       .  A
C892        S898   1.705       .  A
C892        C893   1.402       .  A
C893        H902   1.083       .  S
C893        C894   1.402       .  A
C894        C897   1.372       .  A
S895        C896   1.723       .  A
C896        C897   1.385       .  A
C897        H903   1.083       .  S
S898        C899   1.723       .  A
C899        C900   1.385       .  A
C900        H904   1.083       .  S
C905        S911   1.710       .  A
C905        C910   1.387       .  A
C905        C906   1.404       .  A
C906        H917   1.083       .  S
C906        C907   1.405       .  A
C907        C916   1.373       .  A
C907        C908   1.387       .  A
C908        S914   1.709       .  A
C908        C909   1.402       .  A
C909        H918   1.083       .  S
C909        C910   1.403       .  A
C910        C913   1.372       .  A
S911        C912   1.724       .  A
C912        C913   1.387       .  A
C913        H919   1.083       .  S
S914        C915   1.723       .  A
C915        C916   1.388       .  A
C916        H920   1.083       .  S
C921        S927   1.706       .  A
C921        C926   1.387       .  A
C921        C922   1.400       .  A
C922        H933   1.083       .  S
C922        C923   1.401       .  A
C923        C932   1.369       .  A
C923        C924   1.387       .  A
C924        S930   1.705       .  A
C924        C925   1.400       .  A
C925        H934   1.083       .  S
C925        C926   1.401       .  A
C926        C929   1.368       .  A
S927        C928   1.722       .  A
C928        C929   1.384       .  A
C929        H935   1.083       .  S
S930        C931   1.721       .  A
C931        C932   1.385       .  A
C932        H936   1.083       .  S
