geometry optimzed in LAMMPS
_audit_creation_date              2020-11-30 
_audit_creation_method            'lammps2cif' 
_symmetry_space_group_name_H-M    'P1' 
_symmetry_Int_Tables_number       1 
_symmetry_cell_setting            triclinic 
loop_ 
_symmetry_equiv_pos_as_xyz 
  x,y,z 
_cell_length_a                    57.22202729 
_cell_length_b                    56.86573559209384 
_cell_length_c                    29.077997845542015 
_cell_angle_alpha                 89.77637041311682 
_cell_angle_beta                  89.7792003046035 
_cell_angle_gamma                 89.87146535276493 
loop_ 
_atom_site_label 
_atom_site_type_symbol 
_atom_site_fract_x 
_atom_site_fract_y 
_atom_site_fract_z 
_atom_site_charge 
Zr1        Zr  0.42783749  0.57909238  0.07394260     2.17500
O2          O  0.43585474  0.55290353  0.00949792    -0.52200
O3          O  0.43985576  0.54312009  0.11218695    -0.75400
O4          O  0.46383501  0.58537718  0.03036009    -0.82200
O5          O  0.36135383  0.56048413  0.10304811    -0.83900
O6          O  0.48403571  0.61484540  0.06317031    -0.79500
O7          O  0.38736018  0.57261506  0.05395993    -0.91200
O8          O  0.44367334  0.55094233  0.18802453    -0.77100
O9          O  0.45145879  0.59597448  0.13209316    -0.86600
O10         O  0.40456089  0.57647821  0.14287089    -0.86300
O11         O  0.43533366  0.61858570  0.04915494    -0.73100
O12         O  0.39161265  0.59964727  0.06081318    -0.85200
Zr13       Zr  0.39941680  0.65581101  0.15766692     2.26400
Zr14       Zr  0.45709771  0.63631889  0.11001907     2.06300
Zr15       Zr  0.36868792  0.59938679  0.13168095     2.10000
Zr16       Zr  0.42866363  0.59253554  0.19987834     1.78800
O17         O  0.33296469  0.59756241  0.08666031    -0.94000
O18         O  0.46792976  0.59304584  0.23196371    -0.41800
O19         O  0.39355618  0.61646149  0.18807681    -0.78400
O20         O  0.43417385  0.63376914  0.17859209    -0.97100
O21         O  0.42248457  0.65713271  0.09036037    -0.90400
O22         O  0.37618778  0.63736525  0.10078448    -0.93300
C23         C  0.44588711  0.53694837  0.15290099     1.00500
C24         C  0.37611477  0.55560659  0.07197177     1.13400
C25         C  0.48172897  0.59886548  0.03296285     1.04200
O26         O  0.49142040  0.63347813  0.15893056    -0.95400
O27         O  0.46217795  0.67685546  0.13631471    -0.91200
O28         O  0.42661173  0.68776252  0.16321331    -0.84300
C29         C  0.44800782  0.69208139  0.15339224     1.10800
O30         O  0.39727485  0.61630057  0.96132983    -0.97400
Zr31       Zr  0.39977832  0.63801186  0.03318811     1.88900
O32         O  0.37922410  0.68459083  0.10616440    -0.74100
O33         O  0.47668158  0.65911251  0.05036791    -0.53300
O34         O  0.42237269  0.65349409  0.96873572    -0.98000
O35         O  0.36030957  0.64435732  0.00444020    -0.55200
O36         O  0.39807305  0.67973513  0.03955717    -0.74600
C37         C  0.38246508  0.68991701  0.06335333     0.97800
O38         O  0.39463495  0.67315387  0.23374847    -0.63400
O39         O  0.35173975  0.57968995  0.19839807    -0.58200
O40         O  0.36049411  0.66103040  0.18493565    -0.94900
O41         O  0.34085415  0.62766976  0.16666696    -0.93300
O42         O  0.40465381  0.56894579  0.25166032    -0.93700
O43         O  0.42944427  0.60564272  0.27951578    -0.92400
C44         C  0.34190526  0.64874570  0.18302085     1.16600
H45         H  0.40092826  0.56041094  0.15094821     0.32600
H46         H  0.44212946  0.64179215  0.20320864     0.43400
H47         H  0.36160987  0.64545585  0.09524504     0.36900
H48         H  0.44344718  0.62001370  0.02016523     0.33400
H49         H  0.47770441  0.58437055  0.20952097     0.25200
H50         H  0.46613627  0.67256248  0.04409403     0.31100
H51         H  0.41185142  0.66491684  0.95344731     0.37000
H52         H  0.38980080  0.57778671  0.25442842     0.31500
H53         H  0.33506958  0.57757879  0.19043277     0.30400
H54         H  0.32089554  0.59202049  0.10863848     0.32100
H55         H  0.36242368  0.64937099  0.97205388     0.31000
H56         H  0.41559692  0.61600117  0.28261314     0.35000
H57         H  0.40775830  0.66673598  0.25203736     0.27800
H58         H  0.45158545  0.54602032  0.01325101     0.32000
H59         H  0.40515371  0.60112471  0.96777626     0.34800
H60         H  0.35835894  0.56359328  0.19770668     0.27500
H61         H  0.39810653  0.69010899  0.23024314     0.40300
H62         H  0.50232652  0.64542220  0.14647319     0.30400
H63         H  0.47307248  0.60958948  0.22909737     0.38000
H64         H  0.35355122  0.62838020  0.00240587     0.29900
H65         H  0.49042793  0.66602711  0.06571553     0.29900
H66         H  0.43686015  0.56293608  0.98163427     0.30200
Zr67       Zr  0.45832135  0.91259708  0.17524599     2.17500
O68         O  0.46257627  0.94166920  0.23613147    -0.52200
O69         O  0.48285577  0.93457277  0.12449657    -0.75400
O70         O  0.49354869  0.90627064  0.21991953    -0.82200
O71         O  0.39724948  0.93538257  0.17099026    -0.83900
O72         O  0.50552702  0.86847383  0.20917650    -0.79500
O73         O  0.43414238  0.94586607  0.15645712    -0.91200
O74         O  0.47037058  0.92377428  0.05382083    -0.77100
O75         O  0.47707791  0.88371873  0.12920921    -0.86600
O76         O  0.43458264  0.91064465  0.10737619    -0.86300
O77         O  0.45722880  0.87741554  0.22078588    -0.73100
O78         O  0.41932848  0.90288864  0.19910796    -0.85200
Zr79       Zr  0.41220977  0.83512858  0.13609870     2.26400
Zr80       Zr  0.47404056  0.84777625  0.17221122     2.06300
Zr81       Zr  0.39621658  0.89888673  0.13014072     2.10000
Zr82       Zr  0.45366288  0.88256175  0.06229338     1.78800
O83         O  0.35975131  0.92038152  0.14092936    -0.94000
O84         O  0.49394105  0.87480342  0.03894367    -0.41800
O85         O  0.41466079  0.86913193  0.08528238    -0.78400
O86         O  0.45029930  0.84569334  0.10522308    -0.97100
O87         O  0.43612576  0.83811327  0.20164740    -0.90400
O88         O  0.39484692  0.86551596  0.18007977    -0.93300
C89         C  0.48063063  0.93841956  0.08149697     1.00500
C90         C  0.41469689  0.94902052  0.17649522     1.13400
C91         C  0.50668688  0.88849673  0.22899306     1.04200
O92         O  0.50494672  0.83657699  0.11879243    -0.95400
O93         O  0.47062281  0.80544384  0.16413595    -0.91200
O94         O  0.43233562  0.79838275  0.14916062    -0.84300
C95         C  0.45321346  0.79168351  0.15809226     1.10800
O96         O  0.43003952  0.89178824  0.31303199    -0.97400
Zr97       Zr  0.41908531  0.86873806  0.24609482     1.88900
O98         O  0.38701211  0.81768812  0.19803332    -0.74100
O99         O  0.49104235  0.82495452  0.23507137    -0.53300
O100        O  0.43792672  0.84518165  0.30558996    -0.98000
O101        O  0.38653683  0.88953971  0.28195165    -0.55200
O102        O  0.39285445  0.83772865  0.26385887    -0.74600
C103        C  0.38279272  0.82156857  0.24121705     0.97800
O104        O  0.40418822  0.80690002  0.07527230    -0.63400
O105        O  0.39199769  0.91721362  0.05478132    -0.58200
O106        O  0.37292734  0.83710463  0.10826263    -0.94900
O107        O  0.36146739  0.87513204  0.11442449    -0.93300
O108        O  0.43412970  0.89907328  0.99526680    -0.93700
O109        O  0.45409331  0.85744950  0.99451778    -0.92400
C110        C  0.35741761  0.85329490  0.10645252     1.16600
H111        H  0.43322522  0.92493670  0.08955819     0.32600
H112        H  0.45589696  0.83294628  0.08626329     0.43400
H113        H  0.37897523  0.86217515  0.18932720     0.36900
H114        H  0.46559998  0.87867168  0.24935914     0.33400
H115        H  0.49455855  0.87892528  0.00584986     0.25200
H116        H  0.50771328  0.82285185  0.22673948     0.31100
H117        H  0.44562908  0.83207522  0.28907614     0.37000
H118        H  0.44610656  0.90895902  0.97998974     0.31500
H119        H  0.37779790  0.90995529  0.04171537     0.30400
H120        H  0.35227442  0.91291338  0.16805167     0.32100
H121        H  0.38123021  0.87910509  0.30723223     0.31000
H122        H  0.45894164  0.84174271  0.00580192     0.35000
H123        H  0.41969181  0.80230269  0.06296044     0.27800
H124        H  0.47859139  0.94804475  0.23298587     0.32000
H125        H  0.43152220  0.90808265  0.30132563     0.34800
H126        H  0.38734110  0.93363185  0.06149759     0.27500
H127        H  0.39825771  0.79266606  0.09118342     0.40300
H128        H  0.51522606  0.85052891  0.11690830     0.30400
H129        H  0.50329836  0.88721688  0.05392540     0.38000
H130        H  0.37379542  0.88896731  0.25905454     0.29900
H131        H  0.49111423  0.83550422  0.26208820     0.29900
H132        H  0.46266311  0.93258388  0.26522568     0.30200
Zr133      Zr  0.02310781  0.91783898  0.65222412     2.17500
O134        O  0.01032311  0.93372532  0.57894656    -0.52200
O135        O  0.00626425  0.95258939  0.68820044    -0.75400
O136        O  0.98376094  0.90265217  0.66142366    -0.82200
O137        O  0.08612764  0.93547209  0.63121050    -0.83900
O138        O  0.97969379  0.86556468  0.64223031    -0.79500
O139        O  0.04951666  0.94021063  0.60232696    -0.91200
O140        O  0.00917896  0.94458397  0.76459054    -0.77100
O141        O  0.00677702  0.89533337  0.71385370    -0.86600
O142        O  0.04713979  0.92819525  0.71591043    -0.86300
O143        O  0.02386815  0.87680760  0.62883798    -0.73100
O144        O  0.06095637  0.90320552  0.63693985    -0.85200
Zr145      Zr  0.07255573  0.84886198  0.73050293     2.26400
Zr146      Zr  0.00988275  0.85410556  0.69493192     2.06300
Zr147      Zr  0.08489013  0.91220324  0.70021101     2.10000
Zr148      Zr  0.03100161  0.90540369  0.77611285     1.78800
O149        O  0.12478288  0.91756060  0.67294804    -0.94000
O150        O  0.99426472  0.90182569  0.81818934    -0.41800
O151        O  0.06584014  0.88829645  0.75047262    -0.78400
O152        O  0.03468860  0.86293999  0.75856300    -0.97100
O153        O  0.04736172  0.84120854  0.66845700    -0.90400
O154        O  0.08812330  0.87303410  0.67127682    -0.93300
C155        C  0.00250847  0.95807260  0.73040592     1.00500
C156        C  0.07185030  0.94310563  0.60084043     1.13400
C157        C  0.97511469  0.88710780  0.63515361     1.04200
O158        O  0.98687280  0.85595040  0.76539897    -0.95400
O159        O  0.02018873  0.81214870  0.69956952    -0.91200
O160        O  0.05604218  0.80871839  0.73157309    -0.84300
C161        C  0.03720932  0.79963446  0.71516637     1.10800
O162        O  0.04621261  0.87535173  0.53348596    -0.97400
Zr163      Zr  0.06252484  0.86466079  0.60804530     1.88900
O164        O  0.10289011  0.82880598  0.67950602    -0.74100
O165        O  0.97975232  0.82419629  0.68481385    -0.53300
O166        O  0.04842289  0.82730772  0.57839001    -0.98000
O167        O  0.08954078  0.88225184  0.55288052    -0.55200
O168        O  0.09512079  0.83824397  0.60510976    -0.74600
C169        C  0.10742354  0.82783236  0.63551085     0.97800
O170        O  0.07974135  0.82559757  0.79982904    -0.63400
O171        O  0.09016980  0.95002292  0.73801339    -0.58200
O172        O  0.10670134  0.86156540  0.77076029    -0.94900
O173        O  0.11279316  0.90059510  0.75882026    -0.93300
O174        O  0.05767464  0.93090458  0.81774006    -0.93700
O175        O  0.03288963  0.89362968  0.85675116    -0.92400
C176        C  0.11764525  0.88079848  0.77766374     1.16600
H177        H  0.04766855  0.94487557  0.72177253     0.32600
H178        H  0.03028937  0.85374337  0.78523318     0.43400
H179        H  0.10443788  0.87056655  0.66455748     0.36900
H180        H  0.01470124  0.87452534  0.60143825     0.33400
H181        H  0.99349244  0.91612497  0.83749309     0.25200
H182        H  0.96462737  0.83190211  0.69184715     0.31100
H183        H  0.03720545  0.83143338  0.55381248     0.37000
H184        H  0.04788413  0.93869863  0.84136366     0.31500
H185        H  0.10717371  0.95093150  0.74389061     0.30400
H186        H  0.12535111  0.90934140  0.64301682     0.32100
H187        H  0.09705660  0.86884003  0.53697543     0.31000
H188        H  0.04542594  0.88161903  0.85792655     0.35000
H189        H  0.09574558  0.81916420  0.79624386     0.27800
H190        H  0.99753808  0.94467970  0.58689688     0.32000
H191        H  0.04020542  0.89155901  0.53757090     0.34800
H192        H  0.08742588  0.96183931  0.71349751     0.27500
H193        H  0.08082379  0.83702943  0.82532940     0.40300
H194        H  0.97209591  0.86366430  0.75605396     0.30400
H195        H  0.98204203  0.90439856  0.79469044     0.38000
H196        H  0.10208062  0.88906542  0.57201223     0.29900
H197        H  0.97927398  0.82082157  0.65143357     0.29900
H198        H  0.00315912  0.92043970  0.56236098     0.30200
Zr199      Zr  0.05309038  0.57362616  0.70465824     2.17500
O200        O  0.06538143  0.54196407  0.75626890    -0.52200
O201        O  0.02343500  0.54548336  0.67895694    -0.75400
O202        O  0.03579387  0.57574967  0.77954335    -0.82200
O203        O  0.11123412  0.56553370  0.65064530    -0.83900
O204        O  0.02230910  0.61266008  0.79319991    -0.79500
O205        O  0.08026531  0.54482246  0.67338136    -0.91200
O206        O  0.00510681  0.56223497  0.61809746    -0.77100
O207        O  0.02114369  0.59966737  0.68976376    -0.86600
O208        O  0.05327223  0.57734766  0.62345387    -0.86300
O209        O  0.06195612  0.61016068  0.74392746    -0.73100
O210        O  0.09003047  0.59075812  0.68644036    -0.85200
Zr211      Zr  0.06826327  0.65748931  0.62767680     2.26400
Zr212      Zr  0.03047250  0.63696424  0.72571898     2.06300
Zr213      Zr  0.09023623  0.59491912  0.60494089     2.10000
Zr214      Zr  0.02155152  0.60297694  0.60832471     1.78800
O215        O  0.12662701  0.58180269  0.56960800    -0.94000
O216        O  0.98073989  0.61121941  0.62657838    -0.41800
O217        O  0.05864044  0.62126834  0.58816995    -0.78400
O218        O  0.03002010  0.64091598  0.64385681    -0.97100
O219        O  0.06797843  0.65300884  0.70868266    -0.90400
O220        O  0.09957648  0.63110758  0.64313569    -0.93300
C221        C  0.00872876  0.54460279  0.64567430     1.00500
C222        C  0.10231648  0.54795772  0.67207539     1.13400
C223        C  0.02622409  0.59122964  0.80526784     1.04200
O224        O  0.98876731  0.64101141  0.71130385    -0.95400
O225        O  0.03131233  0.68101421  0.72263386    -0.91200
O226        O  0.04991004  0.69253426  0.65739173    -0.84300
C227        C  0.03864721  0.69708642  0.69441789     1.10800
O228        O  0.11487654  0.60355362  0.78800079    -0.97400
Zr229      Zr  0.09882285  0.62622950  0.72443593     1.88900
O230        O  0.10178641  0.68231031  0.65448841    -0.74100
O231        O  0.02097239  0.65598627  0.79833776    -0.53300
O232        O  0.09793728  0.64507923  0.79947509    -0.98000
O233        O  0.13880731  0.61336788  0.70962151    -0.55200
O234        O  0.11799361  0.66305291  0.71493005    -0.74600
C235        C  0.11693966  0.68050126  0.68741382     0.97800
O236        O  0.05078509  0.68454003  0.57228628    -0.63400
O237        O  0.07690311  0.57007006  0.54221252    -0.58200
O238        O  0.09088686  0.65797629  0.55808324    -0.94900
O239        O  0.10715822  0.62176482  0.54955285    -0.93300
O240        O  0.02240136  0.58586573  0.53164073    -0.93700
O241        O  0.00436560  0.62379155  0.54326034    -0.92400
C242        C  0.10440736  0.64332571  0.53790673     1.16600
H243        H  0.05135258  0.56222842  0.60902977     0.32600
H244        H  0.01813145  0.65214185  0.63507327     0.43400
H245        H  0.11447901  0.63725368  0.63308705     0.36900
H246        H  0.06371147  0.60795669  0.77660323     0.33400
H247        H  0.97178673  0.60326819  0.60208772     0.25200
H248        H  0.00824150  0.66731877  0.79177430     0.31100
H249        H  0.08221144  0.65230442  0.80158733     0.37000
H250        H  0.02830321  0.56963886  0.53602349     0.31500
H251        H  0.07854896  0.58002916  0.51438479     0.30400
H252        H  0.13906479  0.58932144  0.58799047     0.32100
H253        H  0.14786376  0.62797462  0.70468976     0.31000
H254        H  0.99776131  0.63842289  0.55634805     0.35000
H255        H  0.06375165  0.69451442  0.56088696     0.27800
H256        H  0.05092357  0.53385081  0.76625945     0.32000
H257        H  0.10394041  0.59022130  0.79193541     0.34800
H258        H  0.08909852  0.55781812  0.53884735     0.27500
H259        H  0.04639007  0.67461688  0.54580101     0.40300
H260        H  0.98622017  0.65816182  0.70799372     0.30400
H261        H  0.97741634  0.60182820  0.65458136     0.38000
H262        H  0.13830719  0.60587861  0.67896432     0.29900
H263        H  0.03473892  0.66571742  0.80599090     0.29900
H264        H  0.07161124  0.54959118  0.78420494     0.30200
Zr265      Zr  0.21838501  0.78029542  0.82171370     2.17500
O266        O  0.20727205  0.80415509  0.75526124    -0.52200
O267        O  0.19141618  0.75394671  0.78177870    -0.75400
O268        O  0.24574429  0.77597395  0.75814153    -0.82200
O269        O  0.17790827  0.81549980  0.90350081    -0.83900
O270        O  0.27788624  0.75499132  0.77937498    -0.79500
O271        O  0.19212354  0.81407402  0.83069874    -0.91200
O272        O  0.19349541  0.71861666  0.81798979    -0.77100
O273        O  0.23929168  0.74459343  0.83465077    -0.86600
O274        O  0.19517019  0.75941588  0.87665635    -0.86300
O275        O  0.25715863  0.79113548  0.84696279    -0.73100
O276        O  0.21760068  0.80352612  0.88953404    -0.85200
Zr277      Zr  0.25328350  0.75886333  0.98444154     2.26400
Zr278      Zr  0.27737965  0.75478300  0.86343234     2.06300
Zr279      Zr  0.19504795  0.78280022  0.94539800     2.10000
Zr280      Zr  0.21621406  0.72379104  0.88904549     1.78800
O281        O  0.17286963  0.81080651  0.99139817    -0.94000
O282        O  0.23197389  0.68961559  0.84906073    -0.41800
O283        O  0.21536319  0.74672151  0.95858662    -0.78400
O284        O  0.25449968  0.73351173  0.91830459    -0.97100
O285        O  0.27578961  0.77968704  0.92906472    -0.90400
O286        O  0.23265774  0.79453183  0.97224602    -0.93300
C287        C  0.18611799  0.73207174  0.78532681     1.00500
C288        C  0.17940208  0.82354934  0.86235162     1.13400
C289        C  0.26486890  0.76506854  0.74916926     1.04200
O290        O  0.29330266  0.71685097  0.84059518    -0.95400
O291        O  0.30735817  0.74111995  0.91927744    -0.91200
O292        O  0.29179104  0.74291240  0.99092406    -0.84300
C293        C  0.30858389  0.73821640  0.96338746     1.10800
O294        O  0.25361113  0.84634405  0.85763677    -0.97400
Zr295      Zr  0.25485755  0.81498691  0.91499396     1.88900
O296        O  0.27378830  0.78910978  0.02869104    -0.74100
O297        O  0.31273634  0.77613110  0.84222338    -0.53300
O298        O  0.29432560  0.82924366  0.90082824    -0.98000
O299        O  0.23402560  0.84886100  0.94624716    -0.55200
O300        O  0.27296122  0.82281272  0.98731511    -0.74600
C301        C  0.27878094  0.81098339  0.02294049     0.97800
O302        O  0.26149995  0.72588186  0.03586570    -0.63400
O303        O  0.15805996  0.76179677  0.94047497    -0.58200
O304        O  0.22721884  0.75843601  0.04955068    -0.94900
O305        O  0.19266265  0.77470370  0.02800994    -0.93300
O306        O  0.17865573  0.71137310  0.92029021    -0.93700
O307        O  0.22046577  0.68909817  0.93784571    -0.92400
C308        C  0.20629094  0.76519743  0.05778643     1.16600
H309        H  0.17947448  0.75682146  0.86577498     0.32600
H310        H  0.26266443  0.71918743  0.92623464     0.43400
H311        H  0.23106414  0.80357043  0.00015285     0.36900
H312        H  0.26527606  0.79982232  0.82319372     0.33400
H313        H  0.21814473  0.68010856  0.84078940     0.25200
H314        H  0.32408462  0.76371386  0.83364036     0.31100
H315        H  0.29828454  0.82359638  0.86958994     0.37000
H316        H  0.16724352  0.71458200  0.89553289     0.31500
H317        H  0.15208078  0.76124353  0.97245382     0.30400
H318        H  0.15729643  0.80354988  0.99569095     0.32100
H319        H  0.22105072  0.85195508  0.92459667     0.31000
H320        H  0.23750651  0.68652459  0.94090011     0.35000
H321        H  0.26365362  0.73279440  0.06677638     0.27800
H322        H  0.20691955  0.79328862  0.72874171     0.32000
H323        H  0.23809220  0.84475647  0.84301733     0.34800
H324        H  0.14744523  0.77283293  0.92435771     0.27500
H325        H  0.24672255  0.71690616  0.03794852     0.40300
H326        H  0.28002208  0.70856108  0.82625380     0.30400
H327        H  0.23784171  0.69582995  0.81934953     0.38000
H328        H  0.24480253  0.86231850  0.94220589     0.29900
H329        H  0.30905226  0.78421800  0.81291808     0.29900
H330        H  0.22072007  0.81467477  0.74926070     0.30200
Zr331      Zr  0.21425053  0.73843685  0.48450836     2.17500
O332        O  0.21179174  0.71395378  0.55346500    -0.52200
O333        O  0.18648115  0.76446419  0.52333806    -0.75400
O334        O  0.24068978  0.74505502  0.54867948    -0.82200
O335        O  0.16873482  0.70704787  0.40668110    -0.83900
O336        O  0.27334240  0.76442435  0.52424113    -0.79500
O337        O  0.18385135  0.70844418  0.47893672    -0.91200
O338        O  0.18511965  0.79841257  0.48239068    -0.77100
O339        O  0.23342815  0.77476032  0.46884758    -0.86600
O340        O  0.19103566  0.75715555  0.42696652    -0.86300
O341        O  0.25337977  0.72886945  0.46028218    -0.73100
O342        O  0.21431529  0.71268537  0.41956755    -0.85200
Zr343      Zr  0.24978064  0.75672669  0.31971792     2.26400
Zr344      Zr  0.27195022  0.76548875  0.44066688     2.06300
Zr345      Zr  0.19240167  0.73239163  0.36035327     2.10000
Zr346      Zr  0.21002254  0.79339905  0.41249370     1.78800
O347        O  0.18080458  0.69773870  0.31721012    -0.94000
O348        O  0.22565628  0.82750702  0.45232431    -0.41800
O349        O  0.21137182  0.76879632  0.34491485    -0.78400
O350        O  0.24878989  0.78429765  0.38295478    -0.97100
O351        O  0.27242458  0.73855105  0.37802988    -0.90400
O352        O  0.23051998  0.72066077  0.33591876    -0.93300
C353        C  0.17872980  0.78543561  0.51693067     1.00500
C354        C  0.16960742  0.70048040  0.44863253     1.13400
C355        C  0.26033635  0.75535056  0.55569732     1.04200
O356        O  0.28308650  0.80525193  0.46221249    -0.95400
O357        O  0.30251994  0.77845716  0.38583745    -0.91200
O358        O  0.28848265  0.77292871  0.31383602    -0.84300
C359        C  0.30449381  0.77942792  0.34158354     1.10800
O360        O  0.25455274  0.67290388  0.45617677    -0.97400
Zr361      Zr  0.25295262  0.70286462  0.39600155     1.88900
O362        O  0.26946931  0.72467558  0.27732292    -0.74100
O363        O  0.30809685  0.74696438  0.46604861    -0.53300
O364        O  0.29376393  0.69399457  0.41236292    -0.98000
O365        O  0.23627098  0.66480687  0.37636796    -0.55200
O366        O  0.27146197  0.69314531  0.32463534    -0.74600
C367        C  0.27566328  0.70332955  0.28628496     0.97800
O368        O  0.25943599  0.78618518  0.26140862    -0.63400
O369        O  0.15278327  0.74799164  0.35444880    -0.58200
O370        O  0.22325975  0.75622620  0.25546520    -0.94900
O371        O  0.18794235  0.74248586  0.27908452    -0.93300
O372        O  0.17218468  0.80533646  0.38214492    -0.93700
O373        O  0.21235548  0.82646672  0.35912432    -0.92400
C374        C  0.20197603  0.75055822  0.24830220     1.16600
H375        H  0.17507776  0.75931296  0.43699878     0.32600
H376        H  0.25630482  0.79874205  0.37352388     0.43400
H377        H  0.22928726  0.71072660  0.30917002     0.36900
H378        H  0.26182222  0.72137017  0.48502136     0.33400
H379        H  0.23832432  0.83355027  0.43225638     0.25200
H380        H  0.31501408  0.74011755  0.43783872     0.31100
H381        H  0.29634203  0.67805517  0.39968375     0.37000
H382        H  0.16533715  0.81567834  0.40598453     0.31500
H383        H  0.14565545  0.74596560  0.38528411     0.30400
H384        H  0.19089758  0.68492332  0.32897698     0.32100
H385        H  0.23686862  0.66401805  0.34238070     0.31000
H386        H  0.21943446  0.81977091  0.33092061     0.35000
H387        H  0.26064755  0.77759143  0.23191845     0.27800
H388        H  0.19545075  0.71536757  0.56447276     0.32000
H389        H  0.26449878  0.67953630  0.48067478     0.34800
H390        H  0.15478193  0.76517625  0.35088703     0.27500
H391        H  0.24534092  0.79620049  0.25841648     0.40300
H392        H  0.27435646  0.80846405  0.49098218     0.30400
H393        H  0.21314283  0.83952736  0.45043321     0.38000
H394        H  0.21943216  0.66631099  0.38375346     0.29900
H395        H  0.31850341  0.76025054  0.47378807     0.29900
H396        H  0.21337470  0.69752285  0.54273993     0.30200
Zr397      Zr  0.57978776  0.93782467  0.39144935     2.17500
O398        O  0.54537461  0.94003414  0.34285223    -0.52200
O399        O  0.55409909  0.96473020  0.43302666    -0.75400
O400        O  0.55408139  0.90692113  0.42063641    -0.82200
O401        O  0.62348859  0.97606466  0.32515672    -0.83900
O402        O  0.56665120  0.87057465  0.41340547    -0.79500
O403        O  0.58754586  0.95966147  0.31942204    -0.91200
O404        O  0.56636339  0.96162773  0.50679692    -0.77100
O405        O  0.58393290  0.91839538  0.46383249    -0.86600
O406        O  0.60464951  0.96392669  0.43305438    -0.86300
O407        O  0.59678298  0.89948168  0.37687534    -0.73100
O408        O  0.61693899  0.93844557  0.35498216    -0.85200
Zr409      Zr  0.66295495  0.90742676  0.44940314     2.26400
Zr410      Zr  0.60263812  0.88070173  0.45145952     2.06300
Zr411      Zr  0.64253765  0.96368799  0.39557716     2.10000
Zr412      Zr  0.60741829  0.94475689  0.50579627     1.78800
O413        O  0.65884970  0.99747931  0.35474762    -0.94000
O414        O  0.58856846  0.92546376  0.57100282    -0.41800
O415        O  0.64589994  0.94521026  0.46858935    -0.78400
O416        O  0.62696881  0.90686875  0.49463629    -0.97100
O417        O  0.63788695  0.88231500  0.40717521    -0.90400
O418        O  0.65829820  0.92579190  0.37685697    -0.93300
C419        C  0.55102667  0.96808538  0.47626676     1.00500
C420        C  0.60451661  0.97209674  0.30299748     1.13400
C421        C  0.55212524  0.88662360  0.40272170     1.04200
O422        O  0.58565202  0.87712359  0.52799563    -0.95400
O423        O  0.63410159  0.85158250  0.46227174    -0.91200
O424        O  0.66205153  0.87285908  0.49618762    -0.84300
C425        C  0.65384618  0.85327119  0.48287805     1.10800
O426        O  0.60724507  0.90231177  0.26794187    -0.97400
Zr427      Zr  0.63233365  0.90136128  0.33537725     1.88900
O428        O  0.68578271  0.87998675  0.39891531    -0.74100
O429        O  0.59282997  0.83902646  0.45716207    -0.53300
O430        O  0.62049911  0.86251728  0.30939305    -0.98000
O431        O  0.64988790  0.92079583  0.26885311    -0.55200
O432        O  0.66814062  0.87959929  0.32912494    -0.74600
C433        C  0.68463037  0.87352667  0.35624297     0.97800
O434        O  0.69187316  0.91080057  0.51036379    -0.63400
O435        O  0.64076543  0.99541295  0.45161947    -0.58200
O436        O  0.69757872  0.93010000  0.43177516    -0.94900
O437        O  0.68572779  0.96260572  0.39261619    -0.93300
O438        O  0.61308030  0.98485148  0.53287920    -0.93700
O439        O  0.63004761  0.94935650  0.57597693    -0.92400
C440        C  0.70170956  0.94863682  0.40784971     1.16600
H441        H  0.59814181  0.97957759  0.43520907     0.32600
H442        H  0.62995869  0.90013038  0.52459919     0.43400
H443        H  0.67251145  0.92629588  0.35897521     0.36900
H444        H  0.58743540  0.89093774  0.35536935     0.33400
H445        H  0.58483423  0.93837155  0.59259685     0.25200
H446        H  0.57679541  0.83815834  0.46995756     0.31100
H447        H  0.61248063  0.85535362  0.33621975     0.37000
H448        H  0.59851105  0.99333764  0.52496004     0.31500
H449        H  0.65709894  0.99738388  0.46203083     0.30400
H450        H  0.66995582  0.00487903  0.37631607     0.32100
H451        H  0.66614303  0.92431586  0.27794937     0.31000
H452        H  0.64653556  0.94969947  0.56552700     0.35000
H453        H  0.68307651  0.90827002  0.53934587     0.27800
H454        H  0.54398086  0.95661016  0.33269315     0.32000
H455        H  0.59791744  0.91687131  0.27148370     0.34800
H456        H  0.63729508  0.00982375  0.43368043     0.27500
H457        H  0.70197736  0.89673055  0.50723330     0.40300
H458        H  0.56857571  0.87690419  0.52257555     0.30400
H459        H  0.57315141  0.92047493  0.55923652     0.38000
H460        H  0.64218352  0.93639135  0.26742890     0.29900
H461        H  0.59152860  0.83336974  0.42509654     0.29900
H462        H  0.54964892  0.93103543  0.31502856     0.30200
Zr463      Zr  0.91869374  0.97210935  0.41029040     2.17500
O464        O  0.95426935  0.98398750  0.44963295    -0.52200
O465        O  0.94488421  0.99291987  0.35795360    -0.75400
O466        O  0.93504424  0.94499511  0.46414202    -0.82200
O467        O  0.86491519  0.00844257  0.44423957    -0.83900
O468        O  0.94444511  0.91123100  0.42819532    -0.79500
O469        O  0.90405658  0.00526354  0.45556483    -0.91200
O470        O  0.94041136  0.97326189  0.29154240    -0.77100
O471        O  0.92684023  0.94489877  0.34890078    -0.86600
O472        O  0.89200145  0.98595954  0.35484186    -0.86300
O473        O  0.89609326  0.93787451  0.40608794    -0.73100
O474        O  0.88184594  0.96882999  0.44964642    -0.85200
Zr475      Zr  0.85030457  0.91493595  0.36157877     2.26400
Zr476      Zr  0.91455496  0.90569674  0.37075166     2.06300
Zr477      Zr  0.85410028  0.97915826  0.38961232     2.10000
Zr478      Zr  0.89891357  0.95848816  0.29404906     1.78800
O479        O  0.82501855  0.00647498  0.41986068    -0.94000
O480        O  0.91751408  0.93615100  0.23262369    -0.41800
O481        O  0.85949677  0.95287890  0.32654657    -0.78400
O482        O  0.88642381  0.91913414  0.31648142    -0.97100
O483        O  0.87909422  0.90090178  0.41414983    -0.90400
O484        O  0.84586033  0.94138794  0.42405424    -0.93300
C485        C  0.95246750  0.98674809  0.31835237     1.00500
C486        C  0.88372460  0.01371737  0.46510836     1.13400
C487        C  0.94457263  0.92476856  0.46324257     1.04200
O488        O  0.94548442  0.89766469  0.31533955    -0.95400
O489        O  0.89833958  0.87342343  0.32534472    -0.91200
O490        O  0.85896219  0.87677511  0.33333386    -0.84300
C491        C  0.87729439  0.86613478  0.31971736     1.10800
O492        O  0.90303565  0.93629959  0.53682637    -0.97400
Zr493      Zr  0.87587923  0.92896054  0.47454566     1.88900
O494        O  0.83549596  0.88641114  0.42132717    -0.74100
O495        O  0.92056957  0.86883822  0.41237829    -0.53300
O496        O  0.90253525  0.89921358  0.50406278    -0.98000
O497        O  0.84852839  0.94408477  0.53170390    -0.55200
O498        O  0.84676641  0.90009089  0.49043491    -0.74600
C499        C  0.83610506  0.88503629  0.46590434     0.97800
O500        O  0.82460264  0.90396826  0.29852837    -0.63400
O501        O  0.85075256  0.00618610  0.32482489    -0.58200
O502        O  0.81078875  0.93044023  0.36183019    -0.94900
O503        O  0.81274800  0.96913178  0.37845788    -0.93300
O504        O  0.89147164  0.99677890  0.25908780    -0.93700
O505        O  0.87874918  0.95775428  0.22050162    -0.92400
C506        C  0.80108111  0.95042183  0.36913831     1.16600
H507        H  0.89493618  0.00220964  0.34698199     0.32600
H508        H  0.88588792  0.90979445  0.28885240     0.43400
H509        H  0.83083745  0.94053169  0.43922225     0.36900
H510        H  0.88406189  0.94230548  0.38491538     0.33400
H511        H  0.92525870  0.94813769  0.21306108     0.25200
H512        H  0.93672954  0.86395121  0.40468526     0.31100
H513        H  0.89268765  0.88877960  0.52335212     0.37000
H514        H  0.90611046  0.00573646  0.26342240     0.31500
H515        H  0.83728094  0.00024929  0.30707310     0.30400
H516        H  0.81927007  0.99910455  0.44868466     0.32100
H517        H  0.85427729  0.96007663  0.53872100     0.31000
H518        H  0.86893056  0.94344698  0.22199276     0.35000
H519        H  0.83495822  0.90260356  0.27130230     0.27800
H520        H  0.95525576  0.00123688  0.44528052     0.32000
H521        H  0.89440683  0.93251517  0.56549073     0.34800
H522        H  0.84513760  0.02110405  0.33844289     0.27500
H523        H  0.81937017  0.88770216  0.30507687     0.40300
H524        H  0.94790856  0.88044333  0.31739747     0.30400
H525        H  0.93056929  0.92777313  0.24780853     0.38000
H526        H  0.85169679  0.93483000  0.55992318     0.29900
H527        H  0.92096851  0.87275358  0.44541078     0.29900
H528        H  0.96730235  0.97751280  0.43103777     0.30200
Zr529      Zr  0.58013984  0.55374462  0.96309301     2.17500
O530        O  0.54831891  0.56905253  0.01002400    -0.52200
O531        O  0.55270926  0.52563355  0.93664687    -0.75400
O532        O  0.56001918  0.56921469  0.89619640    -0.82200
O533        O  0.61741593  0.52028704  0.05154670    -0.83900
O534        O  0.56462340  0.60625290  0.87883227    -0.79500
O535        O  0.58075847  0.53367771  0.03720189    -0.91200
O536        O  0.56884969  0.51000534  0.87230780    -0.77100
O537        O  0.58737951  0.55798310  0.88314593    -0.86600
O538        O  0.60546868  0.52153751  0.94621373    -0.86300
O539        O  0.59523723  0.59264416  0.95106878    -0.73100
O540        O  0.61475733  0.55848005  0.00733005    -0.85200
Zr541      Zr  0.66401435  0.57081307  0.89909347     2.26400
Zr542      Zr  0.60518501  0.59586853  0.86989407     2.06300
Zr543      Zr  0.64181308  0.52827215  0.98596653     2.10000
Zr544      Zr  0.61056147  0.52525996  0.86551428     1.78800
O545        O  0.66416173  0.52362968  0.05639106    -0.94000
O546        O  0.59422936  0.53096986  0.78903197    -0.41800
O547        O  0.64764418  0.53169373  0.90502049    -0.78400
O548        O  0.63010947  0.56307136  0.85193282    -0.97100
O549        O  0.63804458  0.60191418  0.91810070    -0.90400
O550        O  0.65639635  0.56702071  0.97870528    -0.93300
C551        C  0.55165970  0.51226565  0.90155032     1.00500
C552        C  0.59605895  0.52352795  0.06297686     1.13400
C553        C  0.55183103  0.58996321  0.89489309     1.04200
O554        O  0.59191908  0.59202888  0.79087881    -0.95400
O555        O  0.63532884  0.61724457  0.82683121    -0.91200
O556        O  0.67030841  0.59978398  0.84078623    -0.84300
C557        C  0.65750658  0.61508912  0.82088284     1.10800
O558        O  0.59753147  0.60470413  0.05305525    -0.97400
Zr559      Zr  0.62872833  0.59706835  0.99759545     1.88900
O560        O  0.68748271  0.60056355  0.94067341    -0.74100
O561        O  0.59636276  0.63776532  0.87307156    -0.53300
O562        O  0.62184248  0.63921140  0.99003465    -0.98000
O563        O  0.64227243  0.59503062  0.07693425    -0.55200
O564        O  0.66567162  0.61508423  0.99982175    -0.74600
C565        C  0.68431067  0.61387608  0.97610209     0.97800
O566        O  0.69060634  0.56146622  0.83602079    -0.63400
O567        O  0.64242698  0.48566848  0.97829846    -0.58200
O568        O  0.69746788  0.54899949  0.92517831    -0.94900
O569        O  0.68483001  0.52419214  0.98112272    -0.93300
O570        O  0.61874538  0.48338972  0.87494001    -0.93700
O571        O  0.63188077  0.50596326  0.80359251    -0.92400
C572        C  0.70109272  0.53358715  0.95638249     1.16600
H573        H  0.59837106  0.50682122  0.95521057     0.32600
H574        H  0.63470837  0.56403643  0.81997579     0.43400
H575        H  0.67039868  0.56855706  0.99687012     0.36900
H576        H  0.58390160  0.60434719  0.96001562     0.33400
H577        H  0.57798109  0.53632205  0.79450769     0.25200
H578        H  0.61053325  0.64507470  0.88617252     0.31100
H579        H  0.60464581  0.64111112  0.99100180     0.37000
H580        H  0.61041924  0.47839705  0.90319563     0.31500
H581        H  0.65580906  0.48245607  0.95755468     0.30400
H582        H  0.66632681  0.53985566  0.06784383     0.32100
H583        H  0.64499177  0.61158525  0.08587021     0.31000
H584        H  0.64520744  0.51653539  0.79696080     0.35000
H585        H  0.70642122  0.56603112  0.84639794     0.27800
H586        H  0.53795985  0.55539636  0.01557969     0.32000
H587        H  0.60137866  0.61998012  0.06733829     0.34800
H588        H  0.64762424  0.47990793  0.00878288     0.27500
H589        H  0.69091255  0.54408321  0.83445570     0.40300
H590        H  0.57666630  0.58393104  0.79342441     0.30400
H591        H  0.60231512  0.54497136  0.77648435     0.38000
H592        H  0.65809618  0.58800358  0.07514008     0.29900
H593        H  0.59611771  0.64303864  0.84058102     0.29900
H594        H  0.55531496  0.57246992  0.04034773     0.30200
Zr595      Zr  0.92024397  0.52067537  0.92738250     2.17500
O596        O  0.94797606  0.49665324  0.88406269    -0.52200
O597        O  0.94552005  0.50103484  0.98267031    -0.75400
O598        O  0.95381702  0.54383364  0.90700395    -0.82200
O599        O  0.87265895  0.47574386  0.91894558    -0.83900
O600        O  0.95249748  0.57556221  0.95344657    -0.79500
O601        O  0.90206321  0.49159174  0.87815296    -0.91200
O602        O  0.94309742  0.52592557  0.04239866    -0.77100
O603        O  0.92437764  0.55009711  0.98432625    -0.86600
O604        O  0.89496300  0.50812504  0.98807537    -0.86300
O605        O  0.91052738  0.55789905  0.89097443    -0.73100
O606        O  0.88176518  0.52182314  0.89649611    -0.85200
Zr607      Zr  0.84747339  0.57374462  0.97586078     2.26400
Zr608      Zr  0.91176734  0.58645138  0.95169547     2.06300
Zr609      Zr  0.85588485  0.50955223  0.95667720     2.10000
Zr610      Zr  0.90040299  0.53778398  0.04463699     1.78800
O611        O  0.83122930  0.48192074  0.91548867    -0.94000
O612        O  0.91901600  0.56516491  0.09720612    -0.41800
O613        O  0.86040411  0.53838303  0.01507526    -0.78400
O614        O  0.88577987  0.57456858  0.01234075    -0.97100
O615        O  0.87419941  0.58538974  0.91781561    -0.90400
O616        O  0.84482871  0.54508063  0.91713423    -0.93300
C617        C  0.95474024  0.51090840  0.01764921     1.00500
C618        C  0.88456464  0.47760317  0.88201648     1.13400
C619        C  0.96351672  0.56105658  0.92767745     1.04200
O620        O  0.93004860  0.61272206  0.00680369    -0.95400
O621        O  0.89075211  0.62375220  0.95532467    -0.91200
O622        O  0.85436174  0.61516002  0.98236401    -0.84300
C623        C  0.87011882  0.62956618  0.96860163     1.10800
O624        O  0.89044176  0.54314877  0.78893497    -0.97400
Zr625      Zr  0.87182984  0.55737236  0.85896871     1.88900
O626        O  0.82747575  0.59858384  0.91666452    -0.74100
O627        O  0.92868918  0.60822985  0.88738561    -0.53300
O628        O  0.88621796  0.58792389  0.80722389    -0.98000
O629        O  0.84351440  0.53620365  0.81243199    -0.55200
O630        O  0.84422423  0.58896674  0.84831691    -0.74600
C631        C  0.83063664  0.60169174  0.87287984     0.97800
O632        O  0.82728797  0.58565507  0.04595527    -0.63400
O633        O  0.84743145  0.48657645  0.02569911    -0.58200
O634        O  0.80869388  0.55550999  0.98207463    -0.94900
O635        O  0.81409477  0.51686210  0.96552980    -0.93300
O636        O  0.89903771  0.50073029  0.08686960    -0.93700
O637        O  0.88169714  0.54183999  0.11954675    -0.92400
C638        C  0.80099969  0.53454497  0.97514147     1.16600
H639        H  0.89912566  0.49257789  0.99879688     0.32600
H640        H  0.88562524  0.58638857  0.03610933     0.43400
H641        H  0.82937665  0.54438132  0.90400822     0.36900
H642        H  0.92145496  0.56191298  0.86682328     0.33400
H643        H  0.92922748  0.55520013  0.11665363     0.25200
H644        H  0.91749270  0.62112266  0.88101346     0.31100
H645        H  0.90213542  0.59161781  0.81813527     0.37000
H646        H  0.91486805  0.49893092  0.10006859     0.31500
H647        H  0.86279547  0.48282503  0.03937074     0.30400
H648        H  0.82558389  0.47077973  0.93930182     0.32100
H649        H  0.82971698  0.54670868  0.81085522     0.31000
H650        H  0.86487966  0.53923120  0.11357671     0.35000
H651        H  0.83942135  0.59342295  0.06470018     0.27800
H652        H  0.94440955  0.48007384  0.89188100     0.32000
H653        H  0.90740309  0.54317630  0.79550813     0.34800
H654        H  0.84017663  0.49787288  0.04733110     0.27500
H655        H  0.81671810  0.59855678  0.03631109     0.40300
H656        H  0.91910438  0.61335709  0.03321289     0.30400
H657        H  0.93000274  0.57419667  0.07760567     0.38000
H658        H  0.83839755  0.52279586  0.83179243     0.29900
H659        H  0.94252934  0.61617909  0.90040999     0.29900
H660        H  0.94376803  0.49847518  0.85123457     0.30200
Zr661      Zr  0.76855905  0.75409926  0.56810743     2.17500
O662        O  0.79894589  0.75324838  0.50907123    -0.52200
O663        O  0.73727231  0.77696679  0.53197338    -0.75400
O664        O  0.75565475  0.73228036  0.50271620    -0.82200
O665        O  0.80204932  0.80349344  0.62089913    -0.83900
O666        O  0.73455194  0.70126802  0.52969532    -0.79500
O667        O  0.78870739  0.79014888  0.55260671    -0.91200
O668        O  0.70853761  0.78159202  0.58525107    -0.77100
O669        O  0.73128444  0.74177502  0.59430772    -0.86600
O670        O  0.75881687  0.77995332  0.62950157    -0.86300
O671        O  0.77436216  0.71368364  0.59018723    -0.73100
O672        O  0.79946410  0.74859940  0.62301921    -0.85200
Zr673      Zr  0.75650754  0.72304728  0.73633712     2.26400
Zr674      Zr  0.73647805  0.70175960  0.61600133     2.06300
Zr675      Zr  0.78987306  0.77535747  0.68348774     2.10000
Zr676      Zr  0.72205819  0.76672216  0.65737171     1.78800
O677        O  0.83224648  0.77680374  0.69028754    -0.94000
O678        O  0.68199412  0.75243904  0.65270313    -0.41800
O679        O  0.75240273  0.76341240  0.71330902    -0.78400
O680        O  0.72627433  0.72699069  0.67962497    -0.97100
O681        O  0.76548927  0.69654293  0.67516083    -0.90400
O682        O  0.79395254  0.73524848  0.70967524    -0.93300
C683        C  0.71698430  0.78422628  0.54486639     1.00500
C684        C  0.79960939  0.80535567  0.57656746     1.13400
C685        C  0.74331106  0.71390192  0.49659259     1.04200
O686        O  0.69603525  0.69491532  0.59399240    -0.95400
O687        O  0.71650503  0.67929892  0.67651903    -0.91200
O688        O  0.72737227  0.69291260  0.74714538    -0.84300
C689        C  0.71532332  0.67960001  0.72082167     1.10800
O690        O  0.83277348  0.70422714  0.59051694    -0.97400
Zr691      Zr  0.80301628  0.70840033  0.65002495     1.88900
O692        O  0.77931043  0.69145119  0.77034079    -0.74100
O693        O  0.74704311  0.66165285  0.59547565    -0.53300
O694        O  0.80355143  0.66904412  0.61728037    -0.98000
O695        O  0.84315567  0.71614343  0.67332920    -0.55200
O696        O  0.80778904  0.68278702  0.71864962    -0.74600
C697        C  0.79722733  0.67954719  0.75756625     0.97800
O698        O  0.73002983  0.72849386  0.80133182    -0.63400
O699        O  0.78473386  0.81456055  0.71534518    -0.58200
O700        O  0.77479551  0.74504453  0.79846523    -0.94900
O701        O  0.79290091  0.77731156  0.76814283    -0.93300
O702        O  0.71662831  0.80889666  0.66703214    -0.93700
O703        O  0.69980212  0.77484126  0.72714818    -0.92400
C704        C  0.78655941  0.76418012  0.80229953     1.16600
H705        H  0.75730390  0.79603826  0.61913193     0.32600
H706        H  0.71128390  0.72268963  0.69234378     0.43400
H707        H  0.80537613  0.73400130  0.73390653     0.36900
H708        H  0.77904249  0.70451371  0.56381195     0.33400
H709        H  0.67287971  0.76588138  0.64047988     0.25200
H710        H  0.74923708  0.65348238  0.62528183     0.31100
H711        H  0.79383122  0.65947251  0.63843401     0.37000
H712        H  0.72570588  0.81281857  0.69488153     0.31500
H713        H  0.79999511  0.82238719  0.71057748     0.30400
H714        H  0.83547511  0.77172425  0.72224743     0.32100
H715        H  0.84967714  0.70050462  0.68117079     0.31000
H716        H  0.69722446  0.75923754  0.74151337     0.35000
H717        H  0.73823310  0.72174302  0.82826570     0.27800
H718        H  0.79128588  0.75847702  0.48029703     0.32000
H719        H  0.82644467  0.71295097  0.56378373     0.34800
H720        H  0.77399018  0.82261968  0.69379449     0.27500
H721        H  0.72957088  0.74565509  0.80691623     0.40300
H722        H  0.69231931  0.70770702  0.57198875     0.30400
H723        H  0.68226069  0.74091275  0.62729030     0.38000
H724        H  0.84204537  0.72442518  0.70311496     0.29900
H725        H  0.73247116  0.65489467  0.58294889     0.29900
H726        H  0.80240140  0.73636651  0.50425893     0.30200
Zr727      Zr  0.76827950  0.73085998  0.06645680     2.17500
O728        O  0.74090726  0.73244289  0.00241199    -0.52200
O729        O  0.79884506  0.70837900  0.02849013    -0.75400
O730        O  0.78243439  0.75301471  0.00209155    -0.82200
O731        O  0.73205225  0.68302799  0.12214894    -0.83900
O732        O  0.80310084  0.78413096  0.02878376    -0.79500
O733        O  0.74526669  0.69672550  0.05307270    -0.91200
O734        O  0.82692742  0.70212303  0.08166470    -0.77100
O735        O  0.80576326  0.74161321  0.09292733    -0.86600
O736        O  0.77675034  0.70413793  0.12752551    -0.86300
O737        O  0.76353620  0.77124141  0.08774338    -0.73100
O738        O  0.73730769  0.73603675  0.12154771    -0.85200
Zr739      Zr  0.77997921  0.76128641  0.23467372     2.26400
Zr740      Zr  0.80152856  0.78166391  0.11457472     2.06300
Zr741      Zr  0.74628026  0.70950224  0.18334879     2.10000
Zr742      Zr  0.81370013  0.71578120  0.15552906     1.78800
O743        O  0.70417117  0.70625114  0.19508007    -0.94000
O744        O  0.85495407  0.72646150  0.15289275    -0.41800
O745        O  0.78380214  0.72074132  0.21273737    -0.78400
O746        O  0.81030754  0.75563649  0.17817309    -0.97100
O747        O  0.77186390  0.78766244  0.17254875    -0.90400
O748        O  0.74259281  0.74975121  0.20747787    -0.93300
C749        C  0.81898826  0.70076039  0.04069059     1.00500
C750        C  0.73362142  0.68232194  0.07783257     1.13400
C751        C  0.79464817  0.77147164  0.99587014     1.04200
O752        O  0.84217445  0.78502028  0.09035234    -0.95400
O753        O  0.82418477  0.80208832  0.17254307    -0.91200
O754        O  0.81048152  0.79054874  0.24242546    -0.84300
C755        C  0.82455396  0.80238743  0.21668731     1.10800
O756        O  0.70669991  0.77783172  0.08300097    -0.97400
Zr757      Zr  0.73432787  0.77625274  0.14643879     1.88900
O758        O  0.75495802  0.79155935  0.26868545    -0.74100
O759        O  0.79320456  0.82296160  0.09924956    -0.53300
O760        O  0.73235370  0.81575766  0.11397726    -0.98000
O761        O  0.69402878  0.76986515  0.17078741    -0.55200
O762        O  0.72875575  0.80158220  0.21361201    -0.74600
C763        C  0.73766371  0.80387380  0.25393465     0.97800
O764        O  0.80565240  0.75924323  0.30136411    -0.63400
O765        O  0.75575310  0.66975009  0.20948030    -0.58200
O766        O  0.76343560  0.73748913  0.29716513    -0.94900
O767        O  0.74066052  0.70852718  0.26751364    -0.93300
O768        O  0.81482562  0.67326548  0.16671094    -0.93700
O769        O  0.83647232  0.70527516  0.22311986    -0.92400
C770        C  0.74943421  0.71993215  0.30155638     1.16600
H771        H  0.77759081  0.68809863  0.11682224     0.32600
H772        H  0.82540592  0.75913581  0.19103422     0.43400
H773        H  0.73093003  0.75123722  0.23140022     0.36900
H774        H  0.75927740  0.78067179  0.06136170     0.33400
H775        H  0.86243471  0.71476875  0.13240489     0.25200
H776        H  0.78123087  0.82277575  0.07477431     0.31100
H777        H  0.72184822  0.82459789  0.13483739     0.37000
H778        H  0.82103135  0.66674288  0.13760043     0.31500
H779        H  0.77302846  0.66940316  0.21081542     0.23200
H780        H  0.69866767  0.69403270  0.17357057     0.32100
H781        H  0.69429401  0.77040009  0.20480470     0.31000
H782        H  0.83613937  0.71955931  0.24248743     0.35000
H783        H  0.79617092  0.76486946  0.32769434     0.27800
H784        H  0.74937388  0.72586409  0.97558780     0.32000
H785        H  0.71225809  0.76566919  0.06125224     0.34800
H786        H  0.75070248  0.66856837  0.24198297     0.27500
H787        H  0.80820020  0.74227356  0.30731288     0.40300
H788        H  0.84315460  0.80054910  0.07495047     0.30400
H789        H  0.85542525  0.74136080  0.13519182     0.38000
H790        H  0.69093693  0.75316434  0.16353934     0.29900
H791        H  0.78471642  0.82849372  0.12691416     0.29900
H792        H  0.73863132  0.74931396  0.99509833     0.30200
Zr793      Zr  0.53123459  0.41197356  0.10624294     2.17500
O794        O  0.53853724  0.43998303  0.04474697    -0.52200
O795        O  0.49631942  0.43499390  0.12263532    -0.75400
O796        O  0.51857335  0.40247262  0.02748714    -0.82200
O797        O  0.56820575  0.44309014  0.20254607    -0.83900
O798        O  0.50879039  0.36384752  0.02685758    -0.79500
O799        O  0.54960453  0.44772654  0.13396339    -0.91200
O800        O  0.48335449  0.42393516  0.19272405    -0.77100
O801        O  0.50340732  0.38195017  0.12254307    -0.86600
O802        O  0.52907952  0.41174805  0.18809718    -0.86300
O803        O  0.54771036  0.37634110  0.07620220    -0.73100
O804        O  0.57003486  0.40568049  0.13568131    -0.85200
Zr805      Zr  0.55668352  0.33684706  0.20037089     2.26400
Zr806      Zr  0.52085693  0.34546062  0.09671856     2.06300
Zr807      Zr  0.56672982  0.40164571  0.21790438     2.10000
Zr808      Zr  0.50044986  0.38318654  0.20381147     1.78800
O809        O  0.60434173  0.42080290  0.22816269    -0.94000
O810        O  0.46286272  0.37488908  0.16773245    -0.41800
O811        O  0.53870891  0.37166817  0.23348622    -0.78400
O812        O  0.51706635  0.34583444  0.17790750    -0.97100
O813        O  0.56002354  0.33902353  0.11966527    -0.90400
O814        O  0.58357034  0.36760664  0.18399520    -0.93300
C815        C  0.48399228  0.43889748  0.15884711     1.00500
C816        C  0.56121680  0.45546381  0.16847726     1.13400
C817        C  0.51144907  0.38366523  0.00699425     1.04200
O818        O  0.48041243  0.33230430  0.09326782    -0.95400
O819        O  0.52231436  0.30288859  0.11504541    -0.91200
O820        O  0.54362335  0.29789360  0.17983442    -0.84300
C821        C  0.53160427  0.28977905  0.14641763     1.10800
O822        O  0.59524524  0.40058095  0.04481107    -0.97400
Zr823      Zr  0.58602981  0.37098091  0.10309181     1.88900
O824        O  0.59137854  0.31454928  0.17132340    -0.74100
O825        O  0.53228195  0.32237755  0.02981471    -0.53300
O826        O  0.59298559  0.35432048  0.02705335    -0.98000
O827        O  0.62507733  0.38564829  0.12093020    -0.55200
O828        O  0.60912174  0.33701646  0.11651638    -0.74600
C829        C  0.60766383  0.31856681  0.14120690     0.97800
O830        O  0.54221996  0.31282939  0.26397236    -0.63400
O831        O  0.55145525  0.41583334  0.29093918    -0.58200
O832        O  0.58170522  0.34183398  0.26528512    -0.94900
O833        O  0.59023073  0.38047355  0.27480885    -0.93300
O834        O  0.49272138  0.39871580  0.28024683    -0.93700
O835        O  0.48009173  0.35733063  0.25755475    -0.92400
C836        C  0.59248682  0.35859958  0.28517802     1.16600
H837        H  0.52481443  0.42689187  0.20043870     0.32600
H838        H  0.50690017  0.33316355  0.18744342     0.43400
H839        H  0.59893656  0.36412394  0.19576813     0.36900
H840        H  0.55027469  0.37685384  0.04344718     0.33400
H841        H  0.45328217  0.36672362  0.19122799     0.25200
H842        H  0.54704866  0.31449567  0.03868952     0.31100
H843        H  0.60795163  0.34563944  0.02938151     0.37000
H844        H  0.50351542  0.41220159  0.28316189     0.31500
H845        H  0.55097692  0.40176213  0.31108318     0.30400
H846        H  0.61216589  0.41951232  0.19785040     0.32100
H847        H  0.63601893  0.37416021  0.10702959     0.31000
H848        H  0.49235046  0.34654137  0.26915270     0.35000
H849        H  0.55607615  0.30725888  0.28116377     0.27800
H850        H  0.55540952  0.44371769  0.04644536     0.32000
H851        H  0.61249691  0.40104240  0.04248625     0.34800
H852        H  0.56423449  0.42554549  0.30358654     0.27500
H853        H  0.53435622  0.32410319  0.28481252     0.40300
H854        H  0.47509934  0.33642126  0.06188887     0.30400
H855        H  0.45518386  0.39038867  0.16391298     0.38000
H856        H  0.62713842  0.38362838  0.15446687     0.29900
H857        H  0.52069866  0.30950869  0.02797334     0.29900
H858        H  0.53044011  0.45427206  0.05582083     0.30200
Zr859      Zr  0.54020970  0.06570260  0.16878083     2.17500
O860        O  0.53508489  0.03226082  0.22087633    -0.52200
O861        O  0.51519892  0.03857623  0.12710703    -0.75400
O862        O  0.51563962  0.07506336  0.23534540    -0.82200
O863        O  0.59957601  0.04049465  0.12226266    -0.83900
O864        O  0.49725477  0.10895570  0.21752177    -0.79500
O865        O  0.56954446  0.03556592  0.17274250    -0.91200
O866        O  0.51128210  0.05216977  0.05411876    -0.77100
O867        O  0.51501511  0.09374436  0.13336677    -0.86600
O868        O  0.55240354  0.06580372  0.09028829    -0.86300
O869        O  0.54810171  0.10223958  0.20791628    -0.73100
O870        O  0.58096675  0.07594222  0.16643390    -0.85200
Zr871      Zr  0.57508051  0.14322558  0.09516772     2.26400
Zr872      Zr  0.52388580  0.13085331  0.17006729     2.06300
Zr873      Zr  0.59208006  0.07855319  0.08692748     2.10000
Zr874      Zr  0.52705624  0.09334124  0.05495794     1.78800
O875        O  0.63244556  0.06495673  0.08481311    -0.94000
O876        O  0.48518846  0.10044605  0.04755882    -0.41800
O877        O  0.56708888  0.10741811  0.05287704    -0.78400
O878        O  0.53478730  0.13111417  0.09128320    -0.97100
O879        O  0.56408629  0.14126832  0.17336480    -0.90400
O880        O  0.59995260  0.11402082  0.12783505    -0.93300
C881        C  0.50919240  0.03579548  0.08501195     1.00500
C882        C  0.58866644  0.02902547  0.15371649     1.13400
C883        C  0.50221523  0.09239518  0.24569029     1.04200
O884        O  0.48654132  0.14552419  0.14209527    -0.95400
O885        O  0.52621063  0.17371778  0.15754838    -0.91200
O886        O  0.55595955  0.18089111  0.10763503    -0.84300
C887        C  0.53880573  0.18773831  0.13285094     1.10800
O888        O  0.58659925  0.08741037  0.27563362    -0.97400
Zr889      Zr  0.58835026  0.11147002  0.20615101     1.88900
O890        O  0.60568899  0.16555331  0.13741174    -0.74100
O891        O  0.51970950  0.14877585  0.24567870    -0.53300
O892        O  0.58490759  0.13343503  0.27757252    -0.98000
O893        O  0.62604778  0.09228395  0.21707664    -0.55200
O894        O  0.61401014  0.14454999  0.20199666    -0.74600
C895        C  0.61728593  0.16199867  0.17498267     0.97800
O896        O  0.56979247  0.16804749  0.02739115    -0.63400
O897        O  0.58462770  0.05687061  0.01641651    -0.58200
O898        O  0.60683319  0.13913425  0.04290280    -0.94900
O899        O  0.61786702  0.10089875  0.03581150    -0.93300
O900        O  0.53858404  0.07738074  0.98062381    -0.93700
O901        O  0.51572813  0.11898456  0.99153215    -0.92400
C902        C  0.61948730  0.12284639  0.02582732     1.16600
H903        H  0.55194594  0.05029297  0.07701863     0.32600
H904        H  0.52590686  0.14316154  0.07559393     0.43400
H905        H  0.61625369  0.11817887  0.12506155     0.36900
H906        H  0.54504344  0.10219884  0.24054515     0.33400
H907        H  0.47875949  0.08563566  0.03512228     0.25200
H908        H  0.53212683  0.16085186  0.24693244     0.31100
H909        H  0.57617793  0.14785963  0.26913683     0.37000
H910        H  0.55062671  0.08832357  0.96871144     0.31500
H911        H  0.59433348  0.06476098  0.99272767     0.30400
H912        H  0.63318252  0.05401784  0.05842146     0.32100
H913        H  0.63523196  0.09616669  0.18916914     0.31000
H914        H  0.52804492  0.13117992  0.99033860     0.35000
H915        H  0.58421632  0.17754911  0.02463450     0.27800
H916        H  0.51830031  0.03157951  0.22913963     0.32000
H917        H  0.58879074  0.07106120  0.26479429     0.34800
H918        H  0.59226827  0.04142540  0.02125099     0.27500
H919        H  0.57026916  0.15717665  0.00087484     0.40300
H920        H  0.47941597  0.15350192  0.16892881     0.30400
H921        H  0.47907344  0.10123852  0.07939809     0.38000
H922        H  0.63360553  0.10128584  0.24199538     0.29900
H923        H  0.50494933  0.15785544  0.24411161     0.29900
H924        H  0.54326200  0.03654774  0.24956496     0.30200
Zr925      Zr  0.92743359  0.08102494  0.63145723     2.17500
O926        O  0.92340697  0.05165830  0.57124764    -0.52200
O927        O  0.94742299  0.05195442  0.67787512    -0.75400
O928        O  0.96261336  0.07596270  0.58741129    -0.82200
O929        O  0.86188259  0.07868653  0.64070072    -0.83900
O930        O  0.98089228  0.11144146  0.57964939    -0.79500
O931        O  0.89370760  0.05721988  0.65171585    -0.91200
O932        O  0.95502649  0.06986160  0.74554147    -0.77100
O933        O  0.95585015  0.10488996  0.66810595    -0.86600
O934        O  0.90974792  0.08934094  0.70403910    -0.86300
O935        O  0.93375320  0.11508672  0.58331292    -0.73100
O936        O  0.89198168  0.10149530  0.61386501    -0.85200
Zr937      Zr  0.90588237  0.16837694  0.67348829     2.26400
Zr938      Zr  0.96001568  0.14072877  0.62402437     2.06300
Zr939      Zr  0.87446104  0.11130224  0.68686204     2.10000
Zr940      Zr  0.93881549  0.11191867  0.74036364     1.78800
O941        O  0.83391668  0.09849906  0.69264778    -0.94000
O942        O  0.98073699  0.11681341  0.75157577    -0.41800
O943        O  0.90290835  0.13468364  0.72503294    -0.78400
O944        O  0.94175031  0.14845966  0.69615248    -0.97100
O945        O  0.92458556  0.16008369  0.60258314    -0.90400
O946        O  0.87935881  0.14358430  0.63494864    -0.93300
C947        C  0.95603485  0.05156974  0.71842346     1.00500
C948        C  0.87384345  0.06025127  0.63282227     1.13400
C949        C  0.97855855  0.08940574  0.57126012     1.04200
O950        O  0.99674730  0.14138047  0.66588250    -0.95400
O951        O  0.96731451  0.18347001  0.63622623    -0.91200
O952        O  0.93333657  0.19956445  0.66181744    -0.84300
C953        C  0.95473346  0.20109480  0.64974704     1.10800
O954        O  0.89797014  0.10477876  0.50376177    -0.97400
Zr955      Zr  0.89848198  0.13415152  0.56450648     1.88900
O956        O  0.88304026  0.19196099  0.61527766    -0.74100
O957        O  0.97927394  0.15555353  0.55490186    -0.53300
O958        O  0.92074021  0.14948793  0.49951753    -0.98000
O959        O  0.85937155  0.12916554  0.53311033    -0.55200
O960        O  0.88256667  0.17184913  0.54817467    -0.74600
C961        C  0.87722159  0.18967410  0.57230660     0.97800
O962        O  0.90712665  0.19562438  0.73811666    -0.63400
O963        O  0.86944008  0.09650699  0.76497103    -0.58200
O964        O  0.86923364  0.17724704  0.70885449    -0.94900
O965        O  0.84766218  0.14440862  0.70148483    -0.93300
O966        O  0.92317754  0.09663502  0.81249637    -0.93700
O967        O  0.94476203  0.13611616  0.80830536    -0.92400
C968        C  0.84970738  0.16659180  0.70931930     1.16600
H969        H  0.90662154  0.07542836  0.72222000     0.32600
H970        H  0.95134792  0.15933566  0.71310698     0.43400
H971        H  0.86472108  0.15112069  0.62754172     0.36900
H972        H  0.94006262  0.11059412  0.55381032     0.33400
H973        H  0.98351128  0.11215917  0.78394218     0.25200
H974        H  0.99106173  0.16692655  0.56585039     0.31100
H975        H  0.90974252  0.14907406  0.47332680     0.37000
H976        H  0.90795053  0.10468678  0.81643075     0.31500
H977        H  0.85595780  0.10544920  0.77734731     0.30400
H978        H  0.82565546  0.10699181  0.66770566     0.32100
H979        H  0.86018388  0.13593834  0.50171849     0.31000
H980        H  0.94520496  0.15248114  0.79660950     0.35000
H981        H  0.92341553  0.19500851  0.74945416     0.27800
H982        H  0.92812592  0.05949919  0.54221280     0.32000
H983        H  0.89077056  0.09076053  0.51818615     0.34800
H984        H  0.86352397  0.08028115  0.76120263     0.27500
H985        H  0.90534170  0.21158456  0.72482842     0.40300
H986        H  0.00888118  0.14284013  0.64168237     0.30400
H987        H  0.98813753  0.10410183  0.73340993     0.38000
H988        H  0.84921350  0.14012635  0.55048642     0.29900
H989        H  0.96727644  0.16528311  0.53936909     0.29900
H990        H  0.93572743  0.03979061  0.57729610     0.30200
Zr991      Zr  0.92753618  0.41751248  0.71731570     2.17500
O992        O  0.92404820  0.44058078  0.78742419    -0.52200
O993        O  0.94972901  0.44932434  0.68216995    -0.75400
O994        O  0.95880192  0.41683381  0.77209303    -0.82200
O995        O  0.86342637  0.42304177  0.69668045    -0.83900
O996        O  0.97827730  0.38193568  0.76705330    -0.79500
O997        O  0.89548303  0.44508715  0.70660183    -0.91200
O998        O  0.96096610  0.43630261  0.61189099    -0.77100
O999        O  0.95738400  0.39573597  0.67944744    -0.86600
O1000       O  0.91467765  0.41626543  0.63966690    -0.86300
O1001       O  0.92943649  0.37977145  0.75515634    -0.73100
O1002       O  0.89076690  0.39778084  0.71929074    -0.85200
Zr1003     Zr  0.90772245  0.33582644  0.64024650     2.26400
Zr1004     Zr  0.95787792  0.35694035  0.71326458     2.06300
Zr1005     Zr  0.87810656  0.39517174  0.64082058     2.10000
Zr1006     Zr  0.94491911  0.39514389  0.60220730     1.78800
O1007       O  0.83811202  0.40915167  0.63052878    -0.94000
O1008       O  0.98716852  0.39073303  0.59470263    -0.41800
O1009       O  0.90785953  0.37359961  0.60107110    -0.78400
O1010       O  0.94506881  0.35573292  0.63520427    -0.97100
O1011       O  0.92107010  0.33796580  0.71721320    -0.90400
O1012       O  0.87907516  0.35824432  0.68000060    -0.93300
C1013       C  0.96020000  0.45241629  0.64356444     1.00500
C1014       C  0.87385854  0.44075213  0.71396632     1.13400
C1015       C  0.97499536  0.40251405  0.78397513     1.04200
O1016       O  0.99738694  0.35516478  0.68210935    -0.95400
O1017       O  0.96468977  0.31499092  0.69451594    -0.91200
O1018       O  0.93451100  0.30324131  0.64948994    -0.84300
C1019       C  0.95373013  0.29936518  0.67074905     1.10800
O1020       O  0.87859828  0.38518320  0.81968957    -0.97400
Zr1021     Zr  0.89261651  0.36078159  0.75686733     1.88900
O1022       O  0.88196901  0.30987563  0.68736596    -0.74100
O1023       O  0.96640172  0.33494951  0.78338903    -0.53300
O1024       O  0.90116706  0.34858672  0.83536095    -0.98000
O1025       O  0.85051203  0.35426455  0.76028395    -0.55200
O1026       O  0.89441836  0.31884847  0.75747128    -0.74600
C1027       C  0.88116084  0.30711826  0.73143481     0.97800
O1028       O  0.91173871  0.31441555  0.56812634    -0.63400
O1029       O  0.88050505  0.41871833  0.57067828    -0.58200
O1030       O  0.87178351  0.33161926  0.59804119    -0.94900
O1031       O  0.85161306  0.36569457  0.60797889    -0.93300
O1032       O  0.93213304  0.41573395  0.53312622    -0.93700
O1033       O  0.95611242  0.37471340  0.53196020    -0.92400
C1034       C  0.85320001  0.34413562  0.59496306     1.16600
H1035       H  0.91296890  0.43188281  0.62689174     0.32600
H1036       H  0.95578269  0.34610557  0.61767633     0.43400
H1037       H  0.86411159  0.35057767  0.68070277     0.36900
H1038       H  0.93394443  0.38140359  0.78693442     0.33400
H1039       H  0.99151661  0.40100216  0.56846708     0.25200
H1040       H  0.98349328  0.33636501  0.78772705     0.31100
H1041       H  0.88756007  0.33891119  0.84468058     0.37000
H1042       H  0.92019051  0.40535695  0.51939232     0.31500
H1043       H  0.87314343  0.40887966  0.54676200     0.30400
H1044       H  0.83500265  0.40840984  0.59709812     0.32100
H1045       H  0.84353639  0.37016358  0.75763476     0.31000
H1046       H  0.94570218  0.36083936  0.53095166     0.35000
H1047       H  0.92864941  0.31480980  0.56080298     0.27800
H1048       H  0.92168481  0.45703318  0.77718219     0.32000
H1049       H  0.88956068  0.39861161  0.82017874     0.34800
H1050       H  0.86951226  0.43197130  0.57534480     0.27500
H1051       H  0.90843150  0.29777399  0.57586314     0.40300
H1052       H  0.00748332  0.35270543  0.70928689     0.30400
H1053       H  0.99375329  0.39875250  0.62188197     0.38000
H1054       H  0.84735113  0.34935262  0.79240485     0.29900
H1055       H  0.95940415  0.34429607  0.80861242     0.29900
H1056       H  0.90893257  0.43581156  0.80108103     0.30200
Zr1057     Zr  0.71565140  0.23453976  0.99123939     2.17500
O1058       O  0.71868724  0.20348201  0.04905334    -0.52200
O1059       O  0.68743767  0.25608884  0.03739848    -0.75400
O1060       O  0.74145585  0.24587403  0.05385299    -0.82200
O1061       O  0.67165098  0.20254758  0.91461081    -0.83900
O1062       O  0.77522814  0.26240493  0.02711074    -0.79500
O1063       O  0.68698114  0.20275399  0.98673348    -0.91200
O1064       O  0.68444823  0.29213770  0.00375424    -0.77100
O1065       O  0.73489848  0.27106407  0.97864487    -0.86600
O1066       O  0.68958629  0.25609435  0.94244224    -0.86300
O1067       O  0.75363080  0.22638529  0.95878291    -0.73100
O1068       O  0.71190678  0.21318936  0.92133312    -0.85200
Zr1069     Zr  0.74247842  0.26275323  0.82801031     2.26400
Zr1070     Zr  0.77225279  0.26358699  0.94285309     2.06300
Zr1071     Zr  0.68720420  0.23538788  0.87104677     2.10000
Zr1072     Zr  0.70852710  0.29297791  0.93286896     1.78800
O1073       O  0.66231067  0.20941580  0.82648518    -0.94000
O1074       O  0.72243631  0.32416949  0.98300428    -0.41800
O1075       O  0.70520569  0.27272374  0.86041180    -0.78400
O1076       O  0.74610095  0.28616212  0.89615517    -0.97100
O1077       O  0.76768444  0.24040671  0.87603339    -0.90400
O1078       O  0.72416653  0.22573991  0.83864429    -0.93300
C1079       C  0.67905741  0.27698920  0.03522457     1.00500
C1080       C  0.67360579  0.19414346  0.95543657     1.13400
C1081       C  0.76150347  0.25554220  0.05977898     1.04200
O1082       O  0.78626136  0.30300336  0.96008336    -0.95400
O1083       O  0.80116543  0.27125594  0.87892261    -0.91200
O1084       O  0.78024667  0.27877531  0.81499370    -0.84300
C1085       C  0.79966685  0.27705416  0.83571349     1.10800
O1086       O  0.74735954  0.17144930  0.94453231    -0.97400
Zr1087     Zr  0.74864073  0.20404678  0.88987281     1.88900
O1088       O  0.76483572  0.23633214  0.77867695    -0.74100
O1089       O  0.80862589  0.24422115  0.96436703    -0.53300
O1090       O  0.78579349  0.18463465  0.90583984    -0.98000
O1091       O  0.72732656  0.17278055  0.85119011    -0.55200
O1092       O  0.76841376  0.20177750  0.81767194    -0.74600
C1093       C  0.77226692  0.21510432  0.78306638     0.97800
O1094       O  0.74059661  0.29857466  0.78175282    -0.63400
O1095       O  0.65069591  0.25692074  0.88113708    -0.58200
O1096       O  0.71755427  0.25935514  0.76262607    -0.94900
O1097       O  0.68398665  0.24218216  0.78746598    -0.93300
O1098       O  0.67165031  0.30845715  0.90396070    -0.93700
O1099       O  0.71431466  0.33078836  0.89494641    -0.92400
C1100       C  0.69710837  0.25117921  0.75592568     1.16600
H1101       H  0.67402196  0.25732804  0.95504422     0.32600
H1102       H  0.75325773  0.30103268  0.88839743     0.43400
H1103       H  0.72239417  0.21740400  0.81001798     0.36900
H1104       H  0.76288940  0.21749510  0.98049389     0.33400
H1105       H  0.70812936  0.33223667  0.99402551     0.25200
H1106       H  0.81119460  0.23233308  0.94005208     0.31100
H1107       H  0.79035208  0.17669334  0.87691748     0.37000
H1108       H  0.67273131  0.30699301  0.87009640     0.31500
H1109       H  0.64449645  0.25881350  0.84959666     0.30400
H1110       H  0.67299714  0.19703500  0.81491475     0.32100
H1111       H  0.73312773  0.15788715  0.86472315     0.31000
H1112       H  0.71752520  0.32680544  0.86241229     0.35000
H1113       H  0.72398140  0.30345820  0.78291301     0.27800
H1114       H  0.71424353  0.21093308  0.07855324     0.32000
H1115       H  0.73658176  0.17677817  0.96910913     0.34800
H1116       H  0.64001931  0.24549751  0.89602729     0.27500
H1117       H  0.74874471  0.31066918  0.80006948     0.40300
H1118       H  0.79326797  0.30882470  0.93102707     0.30400
H1119       H  0.72857634  0.31593753  0.01048366     0.38000
H1120       H  0.71105905  0.17423898  0.86258559     0.29900
H1121       H  0.82089616  0.25616706  0.95885039     0.29900
H1122       H  0.73561249  0.20011888  0.05185386     0.30200
Zr1123     Zr  0.70883818  0.26622432  0.32470684     2.17500
O1124       O  0.70302801  0.28929960  0.25462900    -0.52200
O1125       O  0.68529457  0.23764522  0.28220434    -0.75400
O1126       O  0.73716441  0.26634260  0.26218218    -0.82200
O1127       O  0.66015053  0.29181457  0.40203941    -0.83900
O1128       O  0.77190685  0.25084927  0.28578412    -0.79500
O1129       O  0.67625867  0.29428158  0.33063587    -0.91200
O1130       O  0.68765008  0.20279945  0.32011139    -0.77100
O1131       O  0.73287785  0.23245101  0.33766775    -0.86600
O1132       O  0.68705506  0.24263845  0.37768652    -0.86300
O1133       O  0.74592237  0.27984920  0.35370071    -0.73100
O1134       O  0.70405835  0.28945112  0.39263037    -0.85200
Zr1135     Zr  0.74260094  0.24600476  0.48870872     2.26400
Zr1136     Zr  0.76949881  0.24548634  0.36964044     2.06300
Zr1137     Zr  0.68355832  0.26521444  0.44701732     2.10000
Zr1138     Zr  0.71101378  0.20885752  0.38962344     1.78800
O1139       O  0.65667887  0.29203056  0.48565918    -0.94000
O1140       O  0.73035710  0.17886880  0.34332059    -0.41800
O1141       O  0.70647388  0.23088562  0.45981197    -0.78400
O1142       O  0.74764515  0.22153651  0.42190176    -0.97100
O1143       O  0.76386508  0.26947908  0.43536708    -0.90400
O1144       O  0.71945458  0.28008887  0.47618528    -0.93300
C1145       C  0.68035131  0.21570681  0.28659334     1.00500
C1146       C  0.66090232  0.30006622  0.36108960     1.13400
C1147       C  0.75811073  0.25911997  0.25465079     1.04200
O1148       O  0.78633859  0.20805195  0.34607381    -0.95400
O1149       O  0.79959991  0.23673321  0.43082170    -0.91200
O1150       O  0.78057365  0.22936849  0.49777944    -0.84300
C1151       C  0.79933190  0.23088202  0.47421703     1.10800
O1152       O  0.72931099  0.33636565  0.37275224    -0.97400
Zr1153     Zr  0.74029758  0.30310654  0.42123433     1.88900
O1154       O  0.76780178  0.27496094  0.52662311    -0.74100
O1155       O  0.80385023  0.26756316  0.34524324    -0.53300
O1156       O  0.77365095  0.32385779  0.38838371    -0.98000
O1157       O  0.72228996  0.33236823  0.47132854    -0.55200
O1158       O  0.76670369  0.30862714  0.48401758    -0.74600
C1159       C  0.77449007  0.29605138  0.51707268     0.97800
O1160       O  0.74313709  0.21168997  0.53941965    -0.63400
O1161       O  0.65195672  0.23656447  0.44680506    -0.58200
O1162       O  0.71816883  0.25134899  0.55580736    -0.94900
O1163       O  0.68171322  0.26074653  0.53081535    -0.93300
O1164       O  0.67629422  0.18946405  0.41999048    -0.93700
O1165       O  0.72091221  0.17407379  0.43475614    -0.92400
C1166       C  0.69652024  0.25596711  0.56265673     1.16600
H1167       H  0.67168953  0.23883032  0.36635187     0.32600
H1168       H  0.75680068  0.20783694  0.42990957     0.43400
H1169       H  0.71716492  0.28893791  0.50413112     0.36900
H1170       H  0.75360640  0.28957337  0.33094527     0.33400
H1171       H  0.73070038  0.18533125  0.31165104     0.25200
H1172       H  0.80227460  0.28296224  0.36067059     0.31100
H1173       H  0.78748752  0.31706776  0.40388787     0.37000
H1174       H  0.67624318  0.17376356  0.40538052     0.31500
H1175       H  0.65535239  0.22613297  0.47330281     0.30400
H1176       H  0.64328814  0.28225107  0.49566531     0.32100
H1177       H  0.70527030  0.33052891  0.46651820     0.31000
H1178       H  0.72424579  0.18016426  0.46589316     0.35000
H1179       H  0.74663889  0.21766133  0.57057684     0.27800
H1180       H  0.70272024  0.30599245  0.26419988     0.32000
H1181       H  0.71930262  0.32953858  0.34854174     0.34800
H1182       H  0.63784414  0.24544336  0.45619538     0.27500
H1183       H  0.72669704  0.20632139  0.54108469     0.40300
H1184       H  0.79563961  0.21180489  0.31823240     0.30400
H1185       H  0.74687573  0.17922028  0.35327145     0.38000
H1186       H  0.72611906  0.34785745  0.45764518     0.29900
H1187       H  0.81724219  0.25986629  0.36066828     0.29900
H1188       H  0.68690911  0.28583095  0.24442238     0.30200
Zr1189     Zr  0.42956478  0.04745884  0.40316403     2.17500
O1190       O  0.45498995  0.05092330  0.33638239    -0.52200
O1191       O  0.45794488  0.02327145  0.44235228    -0.75400
O1192       O  0.45867273  0.07461792  0.43259953    -0.82200
O1193       O  0.39342567  0.00283040  0.34812486    -0.83900
O1194       O  0.44524567  0.11124178  0.43586672    -0.79500
O1195       O  0.43130647  0.01507115  0.35209166    -0.91200
O1196       O  0.44249294  0.01748717  0.51339250    -0.77100
O1197       O  0.42568204  0.06308304  0.47838859    -0.86600
O1198       O  0.40386091  0.02004874  0.43979699    -0.86300
O1199       O  0.41350623  0.08588018  0.39199261    -0.73100
O1200       O  0.39372985  0.04617743  0.35993405    -0.85200
Zr1201     Zr  0.34721658  0.07552487  0.46049382     2.26400
Zr1202     Zr  0.40775155  0.10126058  0.46894708     2.06300
Zr1203     Zr  0.36663720  0.02129144  0.40075973     2.10000
Zr1204     Zr  0.40127948  0.03515036  0.51482698     1.78800
O1205       O  0.34876309  0.99668858  0.34228883    -0.94000
O1206       O  0.41730155  0.04991028  0.58661555    -0.41800
O1207       O  0.36318803  0.03673216  0.47630728    -0.78400
O1208       O  0.38256864  0.07362504  0.50645336    -0.97100
O1209       O  0.37323657  0.10164123  0.42256383    -0.90400
O1210       O  0.35219243  0.05979501  0.38605067    -0.93300
C1211       C  0.45944398  0.01530389  0.48341780     1.00500
C1212       C  0.41502476  0.00218050  0.33635808     1.13400
C1213       C  0.46009737  0.09627082  0.42120171     1.04200
O1214       O  0.43019503  0.10634395  0.53911742    -0.95400
O1215       O  0.38064129  0.12558773  0.51441635    -0.91200
O1216       O  0.34437172  0.10976944  0.50712771    -0.84300
C1217       C  0.35850224  0.12514786  0.52242230     1.10800
O1218       O  0.40609333  0.08726381  0.28345466    -0.97400
Zr1219     Zr  0.37895652  0.08476448  0.34803165     1.88900
O1220       O  0.32474914  0.10319986  0.40965165    -0.74100
O1221       O  0.41328108  0.14275455  0.45078453    -0.53300
O1222       O  0.38766658  0.12537114  0.32761028    -0.98000
O1223       O  0.36175674  0.06912248  0.27783961    -0.55200
O1224       O  0.34203329  0.10363952  0.33911970    -0.74600
C1225       C  0.32580712  0.10964264  0.36678454     0.97800
O1226       O  0.32192157  0.07220740  0.52789215    -0.63400
O1227       O  0.36221011  0.98512596  0.44504439    -0.58200
O1228       O  0.31220435  0.05403850  0.44171426    -0.94900
O1229       O  0.32287429  0.02363404  0.39607613    -0.93300
O1230       O  0.39429857  0.99351161  0.52900700    -0.93700
O1231       O  0.37791829  0.02762275  0.58344461    -0.92400
C1232       C  0.30717039  0.03728976  0.41411545     1.16600
H1233       H  0.41038797  0.00436046  0.43986213     0.32600
H1234       H  0.37903567  0.07924140  0.53701789     0.43400
H1235       H  0.33808115  0.06003766  0.36807342     0.36900
H1236       H  0.42378365  0.09518678  0.37310631     0.33400
H1237       H  0.43181280  0.04074634  0.59153061     0.25200
H1238       H  0.39777065  0.14850988  0.44077493     0.31100
H1239       H  0.38084870  0.13483937  0.35284191     0.37000
H1240       H  0.40770167  0.98828961  0.54793836     0.31500
H1241       H  0.34586817  0.98555975  0.45632567     0.30400
H1242       H  0.34715046  0.00712754  0.31513634     0.32100
H1243       H  0.34723680  0.06111478  0.28775845     0.31000
H1244       H  0.36344307  0.03687858  0.57867741     0.35000
H1245       H  0.30652859  0.07841708  0.51813830     0.27800
H1246       H  0.47092456  0.04825998  0.34844115     0.32000
H1247       H  0.41647477  0.07344431  0.28711503     0.34800
H1248       H  0.36236393  0.97248128  0.42172248     0.27500
H1249       H  0.31946637  0.05511514  0.53233214     0.40300
H1250       H  0.44607275  0.10061752  0.53131433     0.30400
H1251       H  0.42276173  0.06597775  0.57926823     0.38000
H1252       H  0.37226462  0.05615268  0.26832512     0.29900
H1253       H  0.41605808  0.15049390  0.48070892     0.29900
H1254       H  0.45436426  0.06772235  0.32774644     0.30200
Zr1255     Zr  0.08719730  0.02018345  0.41112478     2.17500
O1256       O  0.06789288  0.00304410  0.47795057    -0.52200
O1257       O  0.05738510  0.00643727  0.35906917    -0.75400
O1258       O  0.05122043  0.03650075  0.43796503    -0.82200
O1259       O  0.13611858  0.98045271  0.43336997    -0.83900
O1260       O  0.05571223  0.07610502  0.43018592    -0.79500
O1261       O  0.09959648  0.97977199  0.40757155    -0.91200
O1262       O  0.06408734  0.02746141  0.29401121    -0.77100
O1263       O  0.08103861  0.05169668  0.35851655    -0.86600
O1264       O  0.11276731  0.01101185  0.34870597    -0.86300
O1265       O  0.09701036  0.05539422  0.45214111    -0.73100
O1266       O  0.12557795  0.01843765  0.44466062    -0.85200
Zr1267     Zr  0.15710136  0.07575026  0.37088332     2.26400
Zr1268     Zr  0.09307444  0.08662411  0.39673356     2.06300
Zr1269     Zr  0.15171129  0.01030820  0.38125920     2.10000
Zr1270     Zr  0.10589240  0.04239459  0.29670505     1.78800
O1271       O  0.17691906  0.97602675  0.39061692    -0.94000
O1272       O  0.08688437  0.06974249  0.24375444    -0.41800
O1273       O  0.14580322  0.04158233  0.32722275    -0.78400
O1274       O  0.11898038  0.07790878  0.33459744    -0.97100
O1275       O  0.13060015  0.08470036  0.43120000    -0.90400
O1276       O  0.16160229  0.04469549  0.42480788    -0.93300
C1277       C  0.05094649  0.01399144  0.31960018     1.00500
C1278       C  0.11521215  0.97238422  0.43495357     1.13400
C1279       C  0.04420624  0.05771610  0.44231274     1.04200
O1280       O  0.06998344  0.10305303  0.33417000    -0.95400
O1281       O  0.11367836  0.12438951  0.38962678    -0.91200
O1282       O  0.15040749  0.11685327  0.36317978    -0.84300
C1283       C  0.13402688  0.13080256  0.37538190     1.10800
O1284       O  0.12416116  0.02959167  0.55078345    -0.97400
Zr1285     Zr  0.13497554  0.05378689  0.48495440     1.88900
O1286       O  0.17448080  0.10039122  0.43241040    -0.74100
O1287       O  0.07494445  0.11623999  0.44576933    -0.53300
O1288       O  0.11189727  0.07238182  0.54535796    -0.98000
O1289       O  0.16914835  0.04025276  0.52755500    -0.55200
O1290       O  0.15618854  0.08999370  0.49885925    -0.74600
C1291       C  0.16971790  0.10350988  0.47550587     0.97800
O1292       O  0.17752616  0.08968814  0.30238523    -0.63400
O1293       O  0.15199746  0.98972733  0.30788517    -0.58200
O1294       O  0.19652687  0.05967147  0.36707080    -0.94900
O1295       O  0.19413700  0.02045790  0.37927392    -0.93300
O1296       O  0.10964814  0.00811840  0.24720581    -0.93700
O1297       O  0.12711149  0.05293220  0.22684308    -0.92400
C1298       C  0.20615409  0.03956201  0.37400220     1.16600
H1299       H  0.10874970  0.99635184  0.33408362     0.32600
H1300       H  0.11894881  0.09081271  0.31291156     0.43400
H1301       H  0.17685551  0.04425630  0.43865539     0.36900
H1302       H  0.08638517  0.05752528  0.47762809     0.33400
H1303       H  0.07021163  0.06973789  0.25295374     0.25200
H1304       H  0.08775672  0.12248689  0.46492341     0.31100
H1305       H  0.10716983  0.08775264  0.53221475     0.37000
H1306       H  0.09483837  0.00769013  0.22972950     0.31500
H1307       H  0.16874464  0.98764742  0.30021077     0.30400
H1308       H  0.18453884  0.97819113  0.42082230     0.32100
H1309       H  0.18193138  0.05117526  0.51912292     0.31000
H1310       H  0.14379687  0.05066363  0.23462525     0.35000
H1311       H  0.18148125  0.07523045  0.28511902     0.27800
H1312       H  0.08049277  0.99935252  0.49995515     0.32000
H1313       H  0.11330674  0.01779311  0.53810036     0.34800
H1314       H  0.14638019  0.97368159  0.31524660     0.27500
H1315       H  0.16525639  0.09734465  0.28359779     0.40300
H1316       H  0.05446775  0.09555482  0.33752362     0.30400
H1317       H  0.09252811  0.08557797  0.25218632     0.38000
H1318       H  0.17354621  0.02507980  0.51329803     0.29900
H1319       H  0.07072763  0.12932554  0.42478935     0.29900
H1320       H  0.06183117  0.98770295  0.46752394     0.30200
Zr1321     Zr  0.42895889  0.42846043  0.97100053     2.17500
O1322       O  0.45486229  0.41156090  0.02871147    -0.52200
O1323       O  0.45575788  0.45643327  0.94046036    -0.75400
O1324       O  0.45897934  0.41063469  0.92326907    -0.82200
O1325       O  0.39853280  0.45160237  0.04900570    -0.83900
O1326       O  0.44426683  0.38800305  0.86586498    -0.79500
O1327       O  0.43384397  0.46027996  0.02522389    -0.91200
O1328       O  0.44074435  0.46979820  0.87343475    -0.77100
O1329       O  0.42135060  0.42318403  0.89186618    -0.86600
O1330       O  0.40272314  0.45952722  0.94914480    -0.86300
O1331       O  0.41258904  0.38992065  0.96346473    -0.73100
O1332       O  0.39437048  0.42533748  0.01830186    -0.85200
Zr1333     Zr  0.34425288  0.41260323  0.90919419     2.26400
Zr1334     Zr  0.40297504  0.38579374  0.88332390     2.06300
Zr1335     Zr  0.36722964  0.45526576  0.99337286     2.10000
Zr1336     Zr  0.39856188  0.45533163  0.86930821     1.78800
O1337       O  0.35384006  0.47590927  0.06177324    -0.94000
O1338       O  0.41415194  0.44675067  0.79304486    -0.41800
O1339       O  0.36206348  0.45087793  0.91261114    -0.78400
O1340       O  0.37843217  0.41790423  0.86064072    -0.97100
O1341       O  0.36979796  0.38174031  0.93200495    -0.90400
O1342       O  0.35092800  0.41709140  0.98916376    -0.93300
C1343       C  0.45756457  0.46855437  0.90357202     1.00500
C1344       C  0.41560196  0.46588108  0.04783813     1.13400
C1345       C  0.46124592  0.39768269  0.88723454     1.04200
O1346       O  0.40439075  0.38024466  0.80037494    -0.95400
O1347       O  0.37123056  0.35917954  0.86191812    -0.91200
O1348       O  0.34136467  0.38395597  0.84935366    -0.84300
C1349       C  0.35011963  0.36340704  0.84919168     1.10800
O1350       O  0.40863174  0.37572372  0.06555629    -0.97400
Zr1351     Zr  0.37842109  0.38721653  0.01092725     1.88900
O1352       O  0.32013627  0.38289763  0.95042503    -0.74100
O1353       O  0.42044982  0.34724439  0.89706431    -0.53300
O1354       O  0.38539282  0.34510033  0.01878438    -0.98000
O1355       O  0.36201474  0.39608033  0.08644649    -0.55200
O1356       O  0.34193519  0.36700255  0.00812750    -0.74600
C1357       C  0.32326865  0.36855490  0.98449686     0.97800
O1358       O  0.31657605  0.42568395  0.85049918    -0.63400
O1359       O  0.36591753  0.49594800  0.96845407    -0.58200
O1360       O  0.31135957  0.43617172  0.93333842    -0.94900
O1361       O  0.32376332  0.45726724  0.99459813    -0.93300
O1362       O  0.39889755  0.49815170  0.87317753    -0.93700
O1363       O  0.37157833  0.47025084  0.81118518    -0.92400
C1364       C  0.30763849  0.45012120  0.96695782     1.16600
H1365       H  0.40970102  0.47461251  0.95370399     0.32600
H1366       H  0.37398287  0.41605227  0.82885181     0.43400
H1367       H  0.33684034  0.41570712  0.00736315     0.36900
H1368       H  0.42394655  0.37824290  0.97266479     0.33400
H1369       H  0.40178356  0.43768441  0.77737991     0.25200
H1370       H  0.43530604  0.35022109  0.91336380     0.31100
H1371       H  0.37421892  0.33968942  0.04264999     0.37000
H1372       H  0.40977146  0.50314734  0.84844705     0.31500
H1373       H  0.36239957  0.49538244  0.93518798     0.30400
H1374       H  0.35301003  0.46359993  0.08589381     0.32100
H1375       H  0.37002402  0.41062557  0.09628314     0.31000
H1376       H  0.36536872  0.48529266  0.82316601     0.35000
H1377       H  0.31856538  0.44296813  0.84877657     0.27800
H1378       H  0.45018051  0.41901550  0.05806007     0.32000
H1379       H  0.41289754  0.39044888  0.08149330     0.34800
H1380       H  0.35147294  0.50232965  0.98256056     0.27500
H1381       H  0.32287177  0.42016265  0.82068195     0.40300
H1382       H  0.41614470  0.39170616  0.78927153     0.30400
H1383       H  0.41445954  0.46211040  0.77688968     0.38000
H1384       H  0.36810128  0.38366861  0.10718030     0.29900
H1385       H  0.41023302  0.33988629  0.92058465     0.29900
H1386       H  0.47034736  0.41842513  0.02153837     0.30200
Zr1387     Zr  0.08717543  0.47130594  0.91536729     2.17500
O1388       O  0.06114781  0.49368671  0.86525275    -0.52200
O1389       O  0.06254054  0.49422062  0.96759194    -0.75400
O1390       O  0.05295340  0.44771421  0.90253510    -0.82200
O1391       O  0.14054809  0.50489817  0.86453798    -0.83900
O1392       O  0.05566374  0.41110153  0.93287003    -0.79500
O1393       O  0.10201622  0.49680305  0.85362423    -0.91200
O1394       O  0.06761899  0.47510065  0.03467633    -0.77100
O1395       O  0.08368980  0.44608410  0.98039577    -0.86600
O1396       O  0.11426236  0.48821237  0.96803237    -0.86300
O1397       O  0.09648859  0.43184775  0.88961996    -0.73100
O1398       O  0.12496215  0.46786336  0.88353251    -0.85200
Zr1399     Zr  0.15965290  0.42000564  0.96942699     2.26400
Zr1400     Zr  0.09568747  0.40735152  0.95766710     2.06300
Zr1401     Zr  0.15288963  0.48377317  0.93436316     2.10000
Zr1402     Zr  0.10992431  0.46284517  0.03297328     1.78800
O1403       O  0.17620846  0.51581416  0.90259750    -0.94000
O1404       O  0.09436872  0.44138699  0.09912815    -0.41800
O1405       O  0.14893075  0.45839577  0.99938932    -0.78400
O1406       O  0.12287380  0.42398301  0.01054136    -0.97100
O1407       O  0.13199690  0.40481066  0.91703766    -0.90400
O1408       O  0.16304130  0.44548692  0.90498727    -0.93300
C1409       C  0.05503823  0.48797196  0.00739472     1.00500
C1410       C  0.12147406  0.50643074  0.84131677     1.13400
C1411       C  0.04450363  0.42737105  0.91171502     1.04200
O1412       O  0.07138042  0.39434716  0.02174559    -0.95400
O1413       O  0.11361185  0.37413896  0.99916204    -0.91200
O1414       O  0.15132313  0.38470532  0.01169460    -0.84300
C1415       C  0.13400017  0.37081136  0.01663457     1.10800
O1416       O  0.11211712  0.43822181  0.78300406    -0.97400
Zr1417     Zr  0.13421561  0.43098007  0.85306149     1.88900
O1418       O  0.17172095  0.38974686  0.91149053    -0.74100
O1419       O  0.08680891  0.37324268  0.91047667    -0.53300
O1420       O  0.12513905  0.39697080  0.80583611    -0.98000
O1421       O  0.15457688  0.45812387  0.80168694    -0.55200
O1422       O  0.16833584  0.40731356  0.84274278    -0.74600
C1423       C  0.17422677  0.38968635  0.86721826     0.97800
O1424       O  0.18991578  0.40971014  0.02503033    -0.63400
O1425       O  0.15451472  0.51321035  0.99497057    -0.58200
O1426       O  0.19830328  0.43732609  0.97265457    -0.94900
O1427       O  0.19472226  0.47506841  0.94820437    -0.93300
O1428       O  0.11355972  0.50255942  0.06316267    -0.93700
O1429       O  0.13220962  0.46379430  0.10406981    -0.92400
C1430       C  0.20701287  0.45748535  0.96267778     1.16600
H1431       H  0.11033425  0.50441032  0.97439388     0.32600
H1432       H  0.12329480  0.41486506  0.03853243     0.43400
H1433       H  0.17837059  0.44504155  0.89099503     0.36900
H1434       H  0.08548095  0.42618525  0.86717951     0.33400
H1435       H  0.07849860  0.44785198  0.10420714     0.25200
H1436       H  0.07507480  0.36433806  0.92856160     0.31100
H1437       H  0.11414853  0.38758471  0.82476332     0.37000
H1438       H  0.10130598  0.50363677  0.08720223     0.31500
H1439       H  0.15566766  0.50395597  0.02377433     0.30400
H1440       H  0.18592670  0.50850334  0.87827672     0.32100
H1441       H  0.16488609  0.44801609  0.78275642     0.31000
H1442       H  0.14494947  0.45223511  0.09925683     0.35000
H1443       H  0.18209060  0.40989046  0.05547098     0.27800
H1444       H  0.05573542  0.48239858  0.84175526     0.32000
H1445       H  0.09703870  0.44488263  0.79358182     0.34800
H1446       H  0.17013252  0.52049681  0.99169463     0.27500
H1447       H  0.19402102  0.39302637  0.01947362     0.40300
H1448       H  0.06297772  0.40866990  0.03186860     0.30400
H1449       H  0.09167334  0.42517599  0.08817567     0.38000
H1450       H  0.16539437  0.46705553  0.82151265     0.29900
H1451       H  0.10107546  0.36337462  0.91163147     0.29900
H1452       H  0.04711977  0.49700578  0.88413752     0.30200
Zr1453     Zr  0.23979497  0.25920964  0.76671535     2.17500
O1454       O  0.21298060  0.25927015  0.83215376    -0.52200
O1455       O  0.27182122  0.28446987  0.79279906    -0.75400
O1456       O  0.25653568  0.23923964  0.83202175    -0.82200
O1457       O  0.20117786  0.30526513  0.71397491    -0.83900
O1458       O  0.27602111  0.20697618  0.80639514    -0.79500
O1459       O  0.21815002  0.29450090  0.78135136    -0.91200
O1460       O  0.29920741  0.28717409  0.73623165    -0.77100
O1461       O  0.27624998  0.24778588  0.73574313    -0.86600
O1462       O  0.24592928  0.28384316  0.70148073    -0.86300
O1463       O  0.23472475  0.21824701  0.74951202    -0.73100
O1464       O  0.20718953  0.25127500  0.71676593    -0.85200
Zr1465     Zr  0.24750328  0.22379392  0.60047148     2.26400
Zr1466     Zr  0.27210709  0.20705017  0.72022002     2.06300
Zr1467     Zr  0.21341824  0.27675146  0.65226485     2.10000
Zr1468     Zr  0.28197858  0.27153548  0.66879214     1.78800
O1469       O  0.17093386  0.27621673  0.64753941    -0.94000
O1470       O  0.32361716  0.26189055  0.66910731    -0.41800
O1471       O  0.25011068  0.26507928  0.61770184    -0.78400
O1472       O  0.27903527  0.23100235  0.65254254    -0.97100
O1473       O  0.24144358  0.19880461  0.66573412    -0.90400
O1474       O  0.21049881  0.23582647  0.63083515    -0.93300
C1475       C  0.29177769  0.29115261  0.77678284     1.00500
C1476       C  0.20536088  0.30834603  0.75751197     1.13400
C1477       C  0.26890871  0.22082241  0.83904095     1.04200
O1478       O  0.31360232  0.20612969  0.73840317    -0.95400
O1479       O  0.29296255  0.18461695  0.66179526    -0.91200
O1480       O  0.27934378  0.19529109  0.59110048    -0.84300
C1481       C  0.29325338  0.18362918  0.61759617     1.10800
O1482       O  0.17634543  0.20921415  0.75767041    -0.97400
Zr1483     Zr  0.20432820  0.21033655  0.69434210     1.88900
O1484       O  0.22405091  0.19142527  0.57300578    -0.74100
O1485       O  0.26453301  0.16648661  0.74272680    -0.53300
O1486       O  0.20501591  0.17338859  0.73699955    -0.98000
O1487       O  0.16379436  0.21426310  0.66955372    -0.55200
O1488       O  0.19878626  0.18200976  0.63035833    -0.74600
C1489       C  0.20770968  0.17869672  0.58995348     0.97800
O1490       O  0.26986580  0.22428857  0.52885714    -0.63400
O1491       O  0.21617784  0.31717635  0.62479628    -0.58200
O1492       O  0.22740884  0.24539184  0.53921099    -0.94900
O1493       O  0.20814474  0.27734893  0.56782832    -0.93300
O1494       O  0.28201883  0.31400241  0.65731195    -0.93700
O1495       O  0.29934907  0.28059647  0.59416136    -0.92400
C1496       C  0.21456296  0.26384448  0.53443588     1.16600
H1497       H  0.24690453  0.30019661  0.71008383     0.32600
H1498       H  0.29384355  0.22717922  0.63859599     0.43400
H1499       H  0.19828864  0.23365059  0.60841210     0.36900
H1500       H  0.23131390  0.20963253  0.77742544     0.33400
H1501       H  0.33163958  0.27651815  0.65945082     0.25200
H1502       H  0.28005593  0.16011082  0.75116015     0.31100
H1503       H  0.20535841  0.16098302  0.71322548     0.37000
H1504       H  0.29849889  0.31873385  0.66173543     0.31500
H1505       H  0.22808939  0.31683339  0.60002296     0.30400
H1506       H  0.16744660  0.27658327  0.61422598     0.32100
H1507       H  0.16368388  0.21011432  0.63652549     0.31000
H1508       H  0.29514640  0.26709823  0.57448682     0.35000
H1509       H  0.25922572  0.21798349  0.50513708     0.27800
H1510       H  0.22225871  0.26437696  0.85899368     0.32000
H1511       H  0.17042935  0.22553447  0.76030737     0.34800
H1512       H  0.20120510  0.32020082  0.60884527     0.27500
H1513       H  0.27187281  0.24109695  0.52081159     0.40300
H1514       H  0.31718945  0.18931557  0.74392064     0.30400
H1515       H  0.32627115  0.25082690  0.64342050     0.38000
H1516       H  0.16066572  0.23137993  0.66998818     0.29900
H1517       H  0.25595862  0.16761129  0.77227912     0.29900
H1518       H  0.20944951  0.24248597  0.83807264     0.30200
Zr1519     Zr  0.23773504  0.22745295  0.27157603     2.17500
O1520       O  0.26330941  0.23224339  0.33782029    -0.52200
O1521       O  0.20732294  0.20291491  0.30535726    -0.75400
O1522       O  0.21909946  0.24733693  0.33466642    -0.82200
O1523       O  0.27917168  0.18294697  0.21899363    -0.83900
O1524       O  0.19891606  0.27858085  0.30596536    -0.79500
O1525       O  0.26322385  0.19464032  0.28720312    -0.91200
O1526       O  0.17869217  0.20218012  0.25223313    -0.77100
O1527       O  0.20063787  0.23687482  0.24074098    -0.86600
O1528       O  0.23270405  0.20101457  0.20891360    -0.86300
O1529       O  0.24014974  0.26828019  0.25086036    -0.73100
O1530       O  0.26943023  0.23521710  0.21934663    -0.85200
Zr1531     Zr  0.22795272  0.25891675  0.10233235     2.26400
Zr1532     Zr  0.20244269  0.27721028  0.22006618     2.06300
Zr1533     Zr  0.26405219  0.20879557  0.15597962     2.10000
Zr1534     Zr  0.19569738  0.21090891  0.17791825     1.78800
O1535       O  0.30647073  0.21043860  0.14973885    -0.94000
O1536       O  0.15387436  0.21649482  0.16661982    -0.41800
O1537       O  0.22652110  0.21804734  0.12362889    -0.78400
O1538       O  0.19647129  0.25125969  0.15542678    -0.97100
O1539       O  0.23305465  0.28525287  0.16531523    -0.90400
O1540       O  0.26539701  0.24948022  0.13299291    -0.93300
C1541       C  0.18624273  0.19863046  0.29314348     1.00500
C1542       C  0.27656634  0.18129150  0.26327904     1.13400
C1543       C  0.20646953  0.26569539  0.33975612     1.04200
O1544       O  0.16081114  0.27740554  0.23764951    -0.95400
O1545       O  0.18244548  0.29901367  0.15900842    -0.91200
O1546       O  0.19680305  0.28755441  0.08939609    -0.84300
C1547       C  0.18272604  0.29962584  0.11467138     1.10800
O1548       O  0.29331828  0.28336053  0.26425109    -0.97400
Zr1549     Zr  0.27040506  0.27579247  0.19549349     1.88900
O1550       O  0.25200198  0.29064343  0.07248621    -0.74100
O1551       O  0.20745594  0.31828966  0.24122763    -0.53300
O1552       O  0.26822739  0.31644202  0.22137144    -0.98000
O1553       O  0.31190102  0.26852702  0.18298534    -0.55200
O1554       O  0.27800271  0.30050143  0.12803386    -0.74600
C1555       C  0.26907777  0.30284363  0.08775282     0.97800
O1556       O  0.20574303  0.25389319  0.03161565    -0.63400
O1557       O  0.26038398  0.16801085  0.13189320    -0.58200
O1558       O  0.24930653  0.23876865  0.04109954    -0.94900
O1559       O  0.26953791  0.20769393  0.07046305    -0.93300
O1560       O  0.19725061  0.16803709  0.17937044    -0.93700
O1561       O  0.17907447  0.19595573  0.10685971    -0.92400
C1562       C  0.26268848  0.22075176  0.03636041     1.16600
H1563       H  0.23288448  0.18488710  0.21941462     0.32600
H1564       H  0.18160401  0.25445229  0.14110292     0.43400
H1565       H  0.27754225  0.25190209  0.11031363     0.36900
H1566       H  0.24310632  0.27768595  0.27780081     0.33400
H1567       H  0.14657240  0.20234442  0.18042570     0.25200
H1568       H  0.22202734  0.31852641  0.25945330     0.31100
H1569       H  0.28178629  0.32435505  0.20684397     0.37000
H1570       H  0.19051645  0.16336938  0.20945023     0.31500
H1571       H  0.24831146  0.16825599  0.10759626     0.30400
H1572       H  0.30985993  0.20933432  0.11641497     0.32100
H1573       H  0.31353612  0.26604482  0.14945170     0.31000
H1574       H  0.18237904  0.20832555  0.08368402     0.35000
H1575       H  0.21518470  0.26125599  0.00684891     0.27800
H1576       H  0.25535397  0.22411306  0.36366917     0.32000
H1577       H  0.29359046  0.26812441  0.28085072     0.34800
H1578       H  0.27517863  0.16448736  0.11552399     0.27500
H1579       H  0.20590614  0.23683179  0.02492075     0.40300
H1580       H  0.15723796  0.26097649  0.24654432     0.30400
H1581       H  0.14954945  0.22943471  0.18768696     0.38000
H1582       H  0.31474500  0.25282696  0.19673156     0.29900
H1583       H  0.21162083  0.32638860  0.21213519     0.29900
H1584       H  0.26276803  0.24915773  0.34576410     0.30200
C1585       C  0.20162923  0.27171955  0.38891779    -0.07000
C1586       C  0.18874597  0.25543827  0.41538207    -0.18100
C1587       C  0.19105072  0.25413312  0.46366882     0.10200
C1588       C  0.20673603  0.26920387  0.48652777    -0.06900
C1589       C  0.21822608  0.28666628  0.46073270    -0.18100
C1590       C  0.21578609  0.28809954  0.41251442     0.10300
S1591       S  0.17514091  0.23209096  0.49588036    -0.33100
S1592       S  0.23366415  0.30912259  0.38224034    -0.33100
H1593       H  0.21742783  0.31320088  0.34698510     0.28300
H1594       H  0.16200346  0.22347984  0.45880398     0.28300
H1595       H  0.17831461  0.24243669  0.39774545     0.18900
H1596       H  0.23046774  0.29820895  0.47776834     0.18900
C1597       C  0.27073752  0.21608012  0.98762583    -0.07000
C1598       C  0.28195208  0.23453755  0.96399734    -0.18100
C1599       C  0.28417166  0.23476785  0.91560548     0.10200
C1600       C  0.27458284  0.21640865  0.88892110    -0.06900
C1601       C  0.26501094  0.19698594  0.91252694    -0.18100
C1602       C  0.26330284  0.19651410  0.96126660     0.10300
S1603       S  0.29837006  0.25932006  0.88762462    -0.33100
S1604       S  0.24924246  0.17159965  0.98751987    -0.33100
H1605       H  0.26480813  0.17044704  0.02469419     0.28300
H1606       H  0.29989691  0.27353195  0.92683120     0.28300
H1607       H  0.28796594  0.24949451  0.98357355     0.18900
H1608       H  0.25732985  0.18283359  0.89290263     0.18900
C1609       C  0.18295051  0.36839664  0.84097305    -0.07000
C1610       C  0.18655065  0.37075617  0.79288566    -0.18100
C1611       C  0.19278056  0.35166877  0.76450781     0.10200
C1612       C  0.19568441  0.32907451  0.78383061    -0.06900
C1613       C  0.19189840  0.32654844  0.83176718    -0.18100
C1614       C  0.18568717  0.34565688  0.86035200     0.10300
S1615       S  0.19852295  0.35709319  0.70434108    -0.33100
S1616       S  0.18140244  0.34036774  0.92119778    -0.33100
H1617       H  0.18624333  0.31610762  0.92114159     0.28300
H1618       H  0.18621095  0.37849586  0.70152455     0.28300
H1619       H  0.18475672  0.38788889  0.77697278     0.18900
H1620       H  0.19406869  0.30933360  0.84717344     0.18900
C1621       C  0.16590725  0.31575337  0.09138539    -0.07000
C1622       C  0.15961676  0.33673032  0.11363968    -0.18100
C1623       C  0.14588245  0.35369572  0.09165947     0.10200
C1624       C  0.13878470  0.35023366  0.04581636    -0.06900
C1625       C  0.14319611  0.32858857  0.02479649    -0.18100
C1626       C  0.15621668  0.31108138  0.04747619     0.10300
S1627       S  0.13909455  0.38029811  0.12254098    -0.33100
S1628       S  0.15991498  0.28304054  0.01967105    -0.33100
H1629       H  0.14047573  0.28526553  0.99043836     0.28300
H1630       H  0.11803230  0.38466851  0.09916338     0.28300
H1631       H  0.16610361  0.34037990  0.14783266     0.18900
H1632       H  0.13778482  0.32595309  0.98952680     0.18900
C1633       C  0.30664984  0.30644112  0.80445405    -0.07000
C1634       C  0.29636644  0.32679667  0.82159629    -0.18100
C1635       C  0.30993505  0.34556683  0.83653886     0.10200
C1636       C  0.33478712  0.34384016  0.83458420    -0.06900
C1637       C  0.34501641  0.32255246  0.82053186    -0.18100
C1638       C  0.33119030  0.30385080  0.80526397     0.10300
S1639       S  0.29450621  0.37131251  0.85714251    -0.33100
S1640       S  0.34488416  0.27681084  0.78666760    -0.33100
H1641       H  0.36806297  0.28342454  0.79595513     0.28300
H1642       H  0.27221103  0.36111667  0.86124052     0.28300
H1643       H  0.27753306  0.32862714  0.82018404     0.18900
H1644       H  0.36385461  0.32078337  0.82037432     0.18900
C1645       C  0.23300361  0.45992937  0.96800163    -0.07000
C1646       C  0.24414287  0.44788026  0.00436345    -0.18100
C1647       C  0.26871057  0.44661947  0.00760735     0.10200
C1648       C  0.28275920  0.45728629  0.97356289    -0.06900
C1649       C  0.27175268  0.47043429  0.93870752    -0.18100
C1650       C  0.24719027  0.47210769  0.93586467     0.10300
S1651       S  0.28204308  0.42968420  0.05311945    -0.33100
S1652       S  0.23460689  0.48758638  0.88772346    -0.33100
H1653       H  0.25315480  0.50364445  0.88298538     0.28300
H1654       H  0.26146237  0.42569863  0.07856777     0.28300
H1655       H  0.23351953  0.43868214  0.02949037     0.18900
H1656       H  0.28240626  0.47821476  0.91181033     0.18900
C1657       C  0.27947963  0.32044542  0.05622849    -0.07000
C1658       C  0.29304828  0.31241651  0.01918868    -0.18100
C1659       C  0.30595532  0.32807337  0.99171874     0.10200
C1660       C  0.30452691  0.35255442  0.99997827    -0.06900
C1661       C  0.28982263  0.36059303  0.03537425    -0.18100
C1662       C  0.27743290  0.34489091  0.06367876     0.10300
S1663       S  0.32573657  0.31537189  0.95011244    -0.33100
S1664       S  0.26045695  0.35710957  0.11025915    -0.33100
H1665       H  0.24423286  0.33864815  0.11352990     0.28300
H1666       H  0.33206279  0.33622467  0.92769991     0.28300
H1667       H  0.29476432  0.29366886  0.01341187     0.18900
H1668       H  0.28935810  0.37916269  0.04328236     0.18900
C1669       C  0.19850773  0.15927998  0.56013821    -0.07000
C1670       C  0.17426325  0.15615147  0.55652346    -0.18100
C1671       C  0.16462561  0.13924288  0.52694951     0.10200
C1672       C  0.17936031  0.12428951  0.50062324    -0.06900
C1673       C  0.20358860  0.12784948  0.50295829    -0.18100
C1674       C  0.21326818  0.14487888  0.53247766     0.10300
S1675       S  0.13318273  0.13818679  0.52333060    -0.33100
S1676       S  0.24470591  0.14624691  0.53536865    -0.33100
H1677       H  0.24548460  0.15024370  0.58307017     0.28300
H1678       H  0.13239830  0.13037205  0.47761459     0.28300
H1679       H  0.16263349  0.16742815  0.57605223     0.18900
H1680       H  0.21514135  0.11650753  0.48342135     0.18900
C1681       C  0.13999091  0.15576125  0.37100576    -0.07000
C1682       C  0.16091306  0.16292962  0.39184882    -0.18100
C1683       C  0.17568044  0.17931240  0.37031974     0.10200
C1684       C  0.16933465  0.18815545  0.32644792    -0.06900
C1685       C  0.14626080  0.18445433  0.31113370    -0.18100
C1686       C  0.13152790  0.16850171  0.33320765     0.10300
S1687       S  0.20287655  0.18695037  0.39800150    -0.33100
S1688       S  0.10387501  0.16201584  0.30688761    -0.33100
H1689       H  0.09241939  0.15729582  0.34877559     0.28300
H1690       H  0.19776356  0.17668698  0.44100374     0.28300
H1691       H  0.16703502  0.15351063  0.42190898     0.18900
H1692       H  0.14015714  0.19246915  0.27951537     0.18900
C1693       C  0.34740316  0.14326796  0.55077390    -0.07000
C1694       C  0.33868375  0.13602601  0.59364226    -0.18100
C1695       C  0.32079489  0.14844783  0.61573003     0.10200
C1696       C  0.31187938  0.16929333  0.59555718    -0.06900
C1697       C  0.32177690  0.17731569  0.55397003    -0.18100
C1698       C  0.33908621  0.16437369  0.53103303     0.10300
S1699       S  0.30843828  0.13523912  0.66669119    -0.33100
S1700       S  0.34898202  0.17531251  0.47588362    -0.33100
H1701       H  0.35457863  0.15363421  0.45569477     0.28300
H1702       H  0.28516067  0.13922593  0.65316627     0.28300
H1703       H  0.34438111  0.11935746  0.60803000     0.18900
H1704       H  0.31555837  0.19352009  0.53850513     0.18900
C1705       C  0.28175446  0.03633134  0.40008011    -0.07000
C1706       C  0.26958148  0.05786664  0.39948153    -0.18100
C1707       C  0.24564863  0.05959329  0.38979385     0.10200
C1708       C  0.23252189  0.03896495  0.37975635    -0.06900
C1709       C  0.24483488  0.01733296  0.37877016    -0.18100
C1710       C  0.26917870  0.01584560  0.38830372     0.10300
S1711       S  0.23287558  0.08879572  0.39185333    -0.33100
S1712       S  0.28368333  0.98770106  0.38654017    -0.33100
H1713       H  0.26323435  0.97401033  0.38663947     0.28300
H1714       H  0.25005288  0.09931303  0.41946160     0.28300
H1715       H  0.27905574  0.07389882  0.40658228     0.18900
H1716       H  0.23532613  0.00144991  0.37075077     0.18900
C1717       C  0.28931112  0.16276459  0.28992847    -0.07000
C1718       C  0.28661538  0.13899298  0.27828428    -0.18100
C1719       C  0.29626354  0.12090592  0.30561580     0.10200
C1720       C  0.30868190  0.12641592  0.34640984    -0.06900
C1721       C  0.31079956  0.15013988  0.35856535    -0.18100
C1722       C  0.30174847  0.16821064  0.33066486     0.10300
S1723       S  0.29265523  0.09111866  0.28567989    -0.33100
S1724       S  0.30841835  0.19796325  0.34727341    -0.33100
H1725       H  0.30871220  0.20732738  0.30243263     0.28300
H1726       H  0.29801478  0.07989792  0.32742910     0.28300
H1727       H  0.27676179  0.13444055  0.24784767     0.18900
H1728       H  0.32130268  0.15477216  0.38810109     0.18900
C1729       C  0.76843588  0.25900206  0.10833784    -0.07000
C1730       C  0.77435581  0.23900526  0.13430367    -0.18100
C1731       C  0.77307960  0.23906630  0.18255280     0.10200
C1732       C  0.76587246  0.25965127  0.20580982    -0.06900
C1733       C  0.76194035  0.28021799  0.17991430    -0.18100
C1734       C  0.76329016  0.28017005  0.13168162     0.10300
S1735       S  0.77810343  0.21155905  0.21189652    -0.33100
S1736       S  0.75563053  0.30700663  0.10202184    -0.33100
H1737       H  0.76827354  0.30235089  0.06160816     0.28300
H1738       H  0.75826382  0.21312528  0.24044989     0.28300
H1739       H  0.77800765  0.22261531  0.11674861     0.18900
H1740       H  0.75645847  0.29614758  0.19728873     0.18900
C1741       C  0.68919879  0.25199620  0.70778401    -0.07000
C1742       C  0.68846075  0.27404559  0.68585070    -0.18100
C1743       C  0.68805126  0.27592554  0.63782341     0.10200
C1744       C  0.68867747  0.25534806  0.61094732    -0.06900
C1745       C  0.68754615  0.23333521  0.63284217    -0.18100
C1746       C  0.68796800  0.23144638  0.68088876     0.10300
S1747       S  0.68958994  0.30490962  0.61277745    -0.33100
S1748       S  0.68991300  0.20243135  0.70562969    -0.33100
H1749       H  0.70949180  0.20756021  0.73282738     0.28300
H1750       H  0.67575247  0.29946801  0.57449005     0.28300
H1751       H  0.68979059  0.28991132  0.70622281     0.18900
H1752       H  0.68843952  0.21746592  0.61236327     0.18900
C1753       C  0.99030238  0.40991707  0.82123930    -0.07000
C1754       C  0.99696919  0.39317854  0.85429100    -0.18100
C1755       C  0.01219657  0.39907387  0.88972018     0.10200
C1756       C  0.02156012  0.42206847  0.89106510    -0.06900
C1757       C  0.01195098  0.43945314  0.86214019    -0.18100
C1758       C  0.99726711  0.43352357  0.82623728     0.10300
S1759       S  0.01877332  0.37653279  0.93150187    -0.33100
S1760       S  0.99047044  0.45649477  0.78531541    -0.33100
H1761       H  0.99392722  0.44228906  0.74632821     0.28300
H1762       H  0.01968054  0.39228449  0.96868944     0.28300
H1763       H  0.99033889  0.37536348  0.85240396     0.18900
H1764       H  0.01786292  0.45751304  0.86393420     0.18900
C1765       C  0.86214096  0.29336855  0.75433181    -0.07000
C1766       C  0.84018885  0.29324699  0.73360339    -0.18100
C1767       C  0.81987433  0.28717876  0.75817240     0.10200
C1768       C  0.82112995  0.28184332  0.80649414    -0.06900
C1769       C  0.84350647  0.28028643  0.82614546    -0.18100
C1770       C  0.86383723  0.28537134  0.80051343     0.10300
S1771       S  0.79292641  0.28709432  0.72549776    -0.33100
S1772       S  0.89156408  0.28110405  0.82862898    -0.33100
H1773       H  0.90402641  0.27612650  0.78795829     0.28300
H1774       H  0.80296793  0.28659046  0.68123722     0.28300
H1775       H  0.83872078  0.29923166  0.69833552     0.18900
H1776       H  0.84528019  0.27504893  0.86181826     0.18900
C1777       C  0.83231756  0.33223809  0.57644907    -0.07000
C1778       C  0.83525329  0.31825558  0.53730124    -0.18100
C1779       C  0.81666212  0.30544552  0.51919276     0.10200
C1780       C  0.79464736  0.30606573  0.54104272    -0.06900
C1781       C  0.79149377  0.31993808  0.58029150    -0.18100
C1782       C  0.81018818  0.33280243  0.59857878     0.10300
S1783       S  0.82107045  0.28879949  0.46710497    -0.33100
S1784       S  0.80496454  0.34880135  0.65092749    -0.33100
H1785       H  0.82527618  0.34041819  0.67242238     0.28300
H1786       H  0.84135400  0.30069542  0.45263859     0.28300
H1787       H  0.85219987  0.31748282  0.52063224     0.18900
H1788       H  0.77441546  0.32092136  0.59642024     0.18900
C1789       C  0.99377990  0.07923637  0.53675959    -0.07000
C1790       C  0.99496540  0.09058429  0.49400165    -0.18100
C1791       C  0.00895454  0.08167709  0.45911353     0.10200
C1792       C  0.02276478  0.06170371  0.46807037    -0.06900
C1793       C  0.01980922  0.04903764  0.50925392    -0.18100
C1794       C  0.00525844  0.05765309  0.54389185     0.10300
S1795       S  0.00912557  0.09680577  0.40443970    -0.33100
S1796       S  0.00343474  0.04237598  0.59843096    -0.33100
H1797       H  0.01227697  0.02079865  0.58234061     0.28300
H1798       H  0.01608885  0.07709452  0.37859487     0.28300
H1799       H  0.98485792  0.10642551  0.48775548     0.18900
H1800       H  0.03051397  0.03369136  0.51609807     0.18900
C1801       C  0.82834964  0.18087765  0.71885709    -0.07000
C1802       C  0.80669559  0.16931966  0.72256092    -0.18100
C1803       C  0.78658715  0.18142629  0.73652272     0.10200
C1804       C  0.78826313  0.20525940  0.74878945    -0.06900
C1805       C  0.80882406  0.21754072  0.73969450    -0.18100
C1806       C  0.82879916  0.20585501  0.72384310     0.10300
S1807       S  0.75892639  0.16628555  0.74090562    -0.33100
S1808       S  0.85436070  0.22363459  0.71220753    -0.33100
H1809       H  0.84271790  0.24537044  0.70968179     0.28300
H1810       H  0.76622529  0.14544410  0.71921673     0.28300
H1811       H  0.80559019  0.15062382  0.71615056     0.18900
H1812       H  0.80986783  0.23593460  0.74890055     0.18900
C1813       C  0.96298433  0.27487614  0.66655206    -0.07000
C1814       C  0.96421186  0.26503936  0.62222264    -0.18100
C1815       C  0.96525511  0.24058482  0.61544987     0.10200
C1816       C  0.96453208  0.22522333  0.65367425    -0.06900
C1817       C  0.96530882  0.23509709  0.69800714    -0.18100
C1818       C  0.96493044  0.25959164  0.70480860     0.10300
S1819       S  0.96442715  0.22998180  0.55723968    -0.33100
S1820       S  0.96364776  0.27009895  0.76304982    -0.33100
H1821       H  0.98034119  0.28781291  0.75553962     0.28300
H1822       H  0.97741809  0.20953020  0.56641051     0.28300
H1823       H  0.96271121  0.27646912  0.59245258     0.18900
H1824       H  0.96426882  0.22359245  0.72776003     0.18900
C1825       C  0.86124541  0.20678056  0.54845115    -0.07000
C1826       C  0.84203636  0.21572817  0.57252561    -0.18100
C1827       C  0.82258856  0.22535981  0.54948602     0.10200
C1828       C  0.82154863  0.22518296  0.50021219    -0.06900
C1829       C  0.84185938  0.21849271  0.47636691    -0.18100
C1830       C  0.86169251  0.20977104  0.49980023     0.10300
S1831       S  0.79944589  0.23751791  0.58485160    -0.33100
S1832       S  0.88739764  0.20205399  0.46680979    -0.33100
H1833       H  0.88074532  0.21355195  0.42595524     0.28300
H1834       H  0.81200601  0.23846088  0.62632945     0.28300
H1835       H  0.84154934  0.21376380  0.60955875     0.18900
H1836       H  0.84191266  0.21917339  0.43916004     0.18900
C1837       C  0.47580302  0.10250031  0.38280771    -0.07000
C1838       C  0.49542798  0.08817612  0.37600623    -0.18100
C1839       C  0.50460462  0.08434188  0.33198109     0.10200
C1840       C  0.49360302  0.09507006  0.29350677    -0.06900
C1841       C  0.47583815  0.11169694  0.30150145    -0.18100
C1842       C  0.46751338  0.11620090  0.34560109     0.10300
S1843       S  0.52992559  0.06544407  0.32665755    -0.33100
S1844       S  0.44524677  0.13851562  0.35086243    -0.33100
H1845       H  0.45457594  0.14786579  0.39156403     0.28300
H1846       H  0.53313621  0.06068364  0.37372510     0.28300
H1847       H  0.50232958  0.07843361  0.40488291     0.18900
H1848       H  0.46815520  0.12135052  0.27311387     0.18900
C1849       C  0.66537083  0.20424301  0.25094231    -0.07000
C1850       C  0.67174356  0.18172786  0.23566236    -0.18100
C1851       C  0.65769346  0.16902191  0.20521105     0.10200
C1852       C  0.63600236  0.17834190  0.19039213    -0.06900
C1853       C  0.63031919  0.20153800  0.20272635    -0.18100
C1854       C  0.64472361  0.21456859  0.23263820     0.10300
S1855       S  0.66796066  0.14033626  0.18787623    -0.33100
S1856       S  0.63464364  0.24339395  0.24912604    -0.33100
H1857       H  0.64052198  0.24091693  0.29581863     0.28300
H1858       H  0.65492248  0.13929349  0.14702270     0.28300
H1859       H  0.68779094  0.17378276  0.24797924     0.18900
H1860       H  0.61366573  0.20885248  0.19219037     0.18900
C1861       C  0.63680779  0.13147216  0.99282465    -0.07000
C1862       C  0.62762690  0.14624015  0.95857720    -0.18100
C1863       C  0.63888467  0.16707921  0.94644204     0.10200
C1864       C  0.66091340  0.17223362  0.96587124    -0.06900
C1865       C  0.67165861  0.15543851  0.99447418    -0.18100
C1866       C  0.65987866  0.13499021  0.00770184     0.10300
S1867       S  0.62254912  0.18761243  0.91163117    -0.33100
S1868       S  0.67398876  0.11529054  0.04748641    -0.33100
H1869       H  0.66206709  0.09520646  0.03222807     0.28300
H1870       H  0.62813823  0.20725501  0.93871836     0.28300
H1871       H  0.60978054  0.14363241  0.94723412     0.18900
H1872       H  0.68906284  0.15855002  0.00767457     0.18900
C1873       C  0.50684384  0.38418261  0.95690339    -0.07000
C1874       C  0.51160407  0.40487875  0.93173957    -0.18100
C1875       C  0.50228428  0.40738858  0.88760748     0.10200
C1876       C  0.48521547  0.39122812  0.87402213    -0.06900
C1877       C  0.48917058  0.36812770  0.88767977    -0.18100
C1878       C  0.49783740  0.36438173  0.93211354     0.10300
S1879       S  0.50803805  0.43328797  0.85429743    -0.33100
S1880       S  0.49456106  0.33515080  0.95604133    -0.33100
H1881       H  0.48925090  0.32347008  0.91483870     0.28300
H1882       H  0.49242778  0.42752170  0.81877250     0.28300
H1883       H  0.52135475  0.41923282  0.94670491     0.18900
H1884       H  0.47949573  0.35427763  0.87084985     0.18900
C1885       C  0.64318241  0.31778109  0.34900898    -0.07000
C1886       C  0.65019762  0.33846019  0.32635979    -0.18100
C1887       C  0.63373186  0.35528811  0.31257071     0.10200
C1888       C  0.60973531  0.35075082  0.31935694    -0.06900
C1889       C  0.60310366  0.33155345  0.34688869    -0.18100
C1890       C  0.61943619  0.31490495  0.36128798     0.10300
S1891       S  0.64411563  0.38129870  0.28369898    -0.33100
S1892       S  0.60832739  0.28927342  0.39087430    -0.33100
H1893       H  0.62281450  0.27307641  0.36787961     0.28300
H1894       H  0.62813470  0.39626561  0.30609019     0.28300
H1895       H  0.66854986  0.34141238  0.31904088     0.18900
H1896       H  0.58469579  0.32800546  0.35253015     0.18900
C1897       C  0.52955596  0.26353589  0.14297870    -0.07000
C1898       C  0.53200888  0.25285698  0.09968968    -0.18100
C1899       C  0.53406817  0.22828866  0.09509198     0.10200
C1900       C  0.53383054  0.21359809  0.13466466    -0.06900
C1901       C  0.53027292  0.22417453  0.17769663    -0.18100
C1902       C  0.52796232  0.24868997  0.18225129     0.10300
S1903       S  0.53688972  0.21689603  0.03758371    -0.33100
S1904       S  0.52263314  0.25978576  0.23928925    -0.33100
H1905       H  0.50804582  0.27830915  0.22475261     0.28300
H1906       H  0.52493668  0.19577087  0.04653773     0.28300
H1907       H  0.53312557  0.26378673  0.06914695     0.18900
H1908       H  0.52980509  0.21327105  0.20834476     0.18900
C1909       C  0.62608334  0.30119464  0.13014381    -0.07000
C1910       C  0.62056525  0.28449062  0.09642432    -0.18100
C1911       C  0.63771406  0.27598348  0.06576759     0.10200
C1912       C  0.66109508  0.28357945  0.06987007    -0.06900
C1913       C  0.66700586  0.29869786  0.10592065    -0.18100
C1914       C  0.64980823  0.30762466  0.13577629     0.10300
S1915       S  0.62917309  0.25744639  0.01844630    -0.33100
S1916       S  0.65862067  0.32957927  0.17681010    -0.33100
H1917       H  0.63916618  0.32689181  0.20609836     0.28300
H1918       H  0.60520425  0.26299404  0.02016322     0.28300
H1919       H  0.60238155  0.28013180  0.09077587     0.18900
H1920       H  0.68493100  0.30452344  0.10941333     0.18900
C1921       C  0.74083547  0.70718424  0.44725499    -0.07000
C1922       C  0.72192360  0.71601744  0.42144209    -0.18100
C1923       C  0.72316489  0.71789699  0.37294873     0.10200
C1924       C  0.74418065  0.71213576  0.34966057    -0.06900
C1925       C  0.76239430  0.70201473  0.37515729    -0.18100
C1926       C  0.76074393  0.69903874  0.42304080     0.10300
S1927       S  0.69822102  0.72953694  0.34289358    -0.33100
S1928       S  0.78573027  0.68679694  0.45224217    -0.33100
H1929       H  0.77326435  0.67859269  0.49084760     0.28300
H1930       H  0.70052879  0.71432102  0.30514740     0.28300
H1931       H  0.70668193  0.72279718  0.43925209     0.18900
H1932       H  0.77854139  0.69731116  0.35784736     0.18900
C1933       C  0.79869197  0.77714919  0.94651230    -0.07000
C1934       C  0.81312592  0.76156037  0.92189110    -0.18100
C1935       C  0.81058813  0.75827565  0.87429555     0.10200
C1936       C  0.79338719  0.77100084  0.84981405    -0.06900
C1937       C  0.77995756  0.78774270  0.87368590    -0.18100
C1938       C  0.78239899  0.79088305  0.92152541     0.10300
S1939       S  0.82819666  0.73581731  0.84748740    -0.33100
S1940       S  0.76228850  0.81052862  0.94984253    -0.33100
H1941       H  0.77740482  0.81603271  0.98621021     0.28300
H1942       H  0.82947310  0.74695129  0.80429617     0.28300
H1943       H  0.82506290  0.75023141  0.94060241     0.18900
H1944       H  0.76640610  0.79731705  0.85556409     0.18900
C1945       C  0.98048080  0.50561408  0.02661411    -0.07000
C1946       C  0.99723797  0.52336484  0.01880869    -0.18100
C1947       C  0.02154835  0.51841097  0.01573306     0.10200
C1948       C  0.03011142  0.49502633  0.02033044    -0.06900
C1949       C  0.01348637  0.47748002  0.03074565    -0.18100
C1950       C  0.98916652  0.48245262  0.03394174     0.10300
S1951       S  0.04087849  0.54279349  0.00511202    -0.33100
S1952       S  0.96993202  0.45825410  0.04677715    -0.33100
H1953       H  0.95225094  0.47197934  0.06712006     0.28300
H1954       H  0.05978526  0.53321957  0.02974805     0.28300
H1955       H  0.99127608  0.54120301  0.01277343     0.18900
H1956       H  0.01934572  0.45943964  0.03441512     0.18900
C1957       C  0.87474840  0.46887665  0.83882660    -0.07000
C1958       C  0.87641698  0.48410862  0.80076431    -0.18100
C1959       C  0.86950257  0.47706941  0.75741805     0.10200
C1960       C  0.86270754  0.45371001  0.75123402    -0.06900
C1961       C  0.85622640  0.44023370  0.78988820    -0.18100
C1962       C  0.86234696  0.44762322  0.83414330     0.10300
S1963       S  0.87284285  0.49722851  0.70994203    -0.33100
S1964       S  0.85591539  0.42838044  0.88184554    -0.33100
H1965       H  0.87762523  0.43147100  0.90347335     0.28300
H1966       H  0.86036743  0.48343781  0.67835372     0.28300
H1967       H  0.88380267  0.50141468  0.80449715     0.18900
H1968       H  0.84983852  0.42246990  0.78536269     0.18900
C1969       C  0.82064054  0.62255097  0.84786762    -0.07000
C1970       C  0.83677319  0.63676099  0.82387398    -0.18100
C1971       C  0.82980690  0.65575328  0.79614383     0.10200
C1972       C  0.80580928  0.66068024  0.78991769    -0.06900
C1973       C  0.78953658  0.64705637  0.81528908    -0.18100
C1974       C  0.79660936  0.62812500  0.84388273     0.10300
S1975       S  0.85263282  0.67372373  0.77179563    -0.33100
S1976       S  0.77411698  0.61162613  0.87308320    -0.33100
H1977       H  0.78624896  0.59012698  0.87425222     0.28300
H1978       H  0.84048807  0.69507910  0.77711301     0.28300
H1979       H  0.85530593  0.63316990  0.82729106     0.18900
H1980       H  0.77103599  0.65071867  0.81177599     0.18900
C1981       C  0.86275119  0.65427633  0.96795627    -0.07000
C1982       C  0.84038560  0.65867705  0.95012777    -0.18100
C1983       C  0.82572508  0.67554708  0.96996539     0.10200
C1984       C  0.83441160  0.68902409  0.00684852    -0.06900
C1985       C  0.85848915  0.68800033  0.01693924    -0.18100
C1986       C  0.87275409  0.67064939  0.99791661     0.10300
S1987       S  0.79549204  0.67695954  0.95209291    -0.33100
S1988       S  0.90220350  0.66792133  0.01878233    -0.33100
H1989       H  0.91149521  0.66090880  0.97613628     0.28300
H1990       H  0.79596911  0.65759922  0.92228606     0.28300
H1991       H  0.83325909  0.64654675  0.92546096     0.18900
H1992       H  0.86577469  0.69926734  0.04319272     0.18900
C1993       C  0.52881523  0.49884114  0.89795777    -0.07000
C1994       C  0.51511996  0.49841206  0.85744496    -0.18100
C1995       C  0.49152674  0.48983856  0.85750564     0.10200
C1996       C  0.48124772  0.48096100  0.89869796    -0.06900
C1997       C  0.49518660  0.48196139  0.93870599    -0.18100
C1998       C  0.51815348  0.49032734  0.93878049     0.10300
S1999       S  0.47502330  0.49012253  0.80489672    -0.33100
S2000       S  0.53277171  0.49018310  0.99371992    -0.33100
H2001       H  0.55494570  0.48438922  0.97590061     0.28300
H2002       H  0.48993630  0.50551006  0.78079383     0.28300
H2003       H  0.52256955  0.50555720  0.82612943     0.18900
H2004       H  0.48824817  0.47592560  0.97138395     0.18900
C2005       C  0.58812141  0.51355647  0.10737410    -0.07000
C2006       C  0.56401584  0.51358704  0.11649157    -0.18100
C2007       C  0.55444527  0.49692610  0.14598540     0.10200
C2008       C  0.56905806  0.47978676  0.16544743    -0.06900
C2009       C  0.59317201  0.48335654  0.16561216    -0.18100
C2010       C  0.60307492  0.50034930  0.13677742     0.10300
S2011       S  0.52337333  0.49657251  0.15383268    -0.33100
S2012       S  0.63450077  0.50354803  0.13665052    -0.33100
H2013       H  0.63976700  0.48380564  0.16404734     0.28300
H2014       H  0.52363147  0.48201657  0.19308080     0.28300
H2015       H  0.55227061  0.52496198  0.09746464     0.18900
H2016       H  0.60431274  0.47090738  0.18340182     0.18900
C2017       C  0.66975671  0.63157972  0.79021150    -0.07000
C2018       C  0.66764417  0.65574940  0.79859975    -0.18100
C2019       C  0.68206951  0.67193384  0.77568490     0.10200
C2020       C  0.69872991  0.66367948  0.74351773    -0.06900
C2021       C  0.70033130  0.63965655  0.73421001    -0.18100
C2022       C  0.68610485  0.62354543  0.75719039     0.10300
S2023       S  0.67878601  0.70300791  0.78701067    -0.33100
S2024       S  0.68979992  0.59295004  0.74289939    -0.33100
H2025       H  0.66634321  0.58672915  0.75078912     0.28300
H2026       H  0.66323762  0.70077987  0.82436089     0.28300
H2027       H  0.65529605  0.66180520  0.82430228     0.18900
H2028       H  0.71313791  0.63334827  0.70957784     0.18900
C2029       C  0.72603987  0.52785945  0.96496399    -0.07000
C2030       C  0.73605424  0.53446317  0.00699574    -0.18100
C2031       C  0.76045389  0.53592960  0.01222474     0.10200
C2032       C  0.77530471  0.53058732  0.97468969    -0.06900
C2033       C  0.76529047  0.52208221  0.93398841    -0.18100
C2034       C  0.74091065  0.52087129  0.92860894     0.10300
S2035       S  0.77152202  0.54487685  0.06736540    -0.33100
S2036       S  0.72879603  0.51090367  0.87482710    -0.33100
H2037       H  0.75019452  0.50691950  0.85215776     0.28300
H2038       H  0.79296305  0.53287701  0.06381888     0.28300
H2039       H  0.72479021  0.53972764  0.03517798     0.18900
H2040       H  0.77664192  0.51744575  0.90553127     0.18900
C2041       C  0.70244608  0.62973153  0.99277589    -0.07000
C2042       C  0.69835394  0.65365276  0.98446671    -0.18100
C2043       C  0.70678574  0.67079938  0.01421991     0.10200
C2044       C  0.72107620  0.66423152  0.05170509    -0.06900
C2045       C  0.72582168  0.64036818  0.05947623    -0.18100
C2046       C  0.71627523  0.62307455  0.03088819     0.10300
S2047       S  0.69669804  0.70054299  0.00514506    -0.33100
S2048       S  0.72039104  0.59275430  0.04708751    -0.33100
H2049       H  0.71746567  0.58368376  0.00258782     0.28300
H2050       H  0.69717765  0.70710344  0.05174277     0.28300
H2051       H  0.68633774  0.65885452  0.95748742     0.18900
H2052       H  0.73687103  0.63518709  0.08797006     0.18900
C2053       C  0.97712273  0.99458013  0.30579157    -0.07000
C2054       C  0.99488609  0.97752136  0.30121141    -0.18100
C2055       C  0.01897938  0.98348789  0.30158370     0.10200
C2056       C  0.02624235  0.00731054  0.30567938    -0.06900
C2057       C  0.00844347  0.02447517  0.30769332    -0.18100
C2058       C  0.98435867  0.01846231  0.30792756     0.10300
S2059       S  0.03966274  0.95953251  0.29960426    -0.33100
S2060       S  0.96357199  0.04216121  0.31291002    -0.33100
H2061       H  0.94542548  0.03055256  0.28977189     0.28300
H2062       H  0.05880082  0.97282059  0.28390355     0.28300
H2063       H  0.99002814  0.95912121  0.30039838     0.18900
H2064       H  0.01331454  0.04273794  0.31196178     0.18900
C2065       C  0.88032848  0.02590920  0.50862014    -0.07000
C2066       C  0.86530683  0.04535665  0.51048127    -0.18100
C2067       C  0.85860878  0.05481821  0.55278581     0.10200
C2068       C  0.86807474  0.04523161  0.59370127    -0.06900
C2069       C  0.87999392  0.02385821  0.59178549    -0.18100
C2070       C  0.88646894  0.01431279  0.54982982     0.10300
S2071       S  0.83814356  0.07889748  0.55208687    -0.33100
S2072       S  0.90286113  0.98740230  0.55019236    -0.33100
H2073       H  0.89743078  0.98058466  0.59556364     0.28300
H2074       H  0.82643020  0.07154046  0.59227336     0.28300
H2075       H  0.85848156  0.05290025  0.47896757     0.18900
H2076       H  0.88651899  0.01598251  0.62323361     0.18900
C2077       C  0.80915793  0.82615172  0.54949763    -0.07000
C2078       C  0.80280804  0.82863069  0.50250502    -0.18100
C2079       C  0.81027224  0.84759720  0.47472269     0.10200
C2080       C  0.82545854  0.86475018  0.49291442    -0.06900
C2081       C  0.83204660  0.86206519  0.53971912    -0.18100
C2082       C  0.82422874  0.84335774  0.56784739     0.10300
S2083       S  0.79910643  0.84900350  0.41694930    -0.33100
S2084       S  0.83438203  0.84173322  0.62660394    -0.33100
H2085       H  0.85078783  0.86007689  0.62409567     0.28300
H2086       H  0.79333407  0.87303137  0.41955747     0.28300
H2087       H  0.79145814  0.81577448  0.48683267     0.18900
H2088       H  0.84380137  0.87469772  0.55482011     0.18900
C2089       C  0.87247037  0.84498233  0.29348521    -0.07000
C2090       C  0.87169169  0.84761942  0.24562192    -0.18100
C2091       C  0.85689050  0.83367896  0.21873092     0.10200
C2092       C  0.84275463  0.81639697  0.24062224    -0.06900
C2093       C  0.84566882  0.81240102  0.28812975    -0.18100
C2094       C  0.85998029  0.82661439  0.31467018     0.10300
S2095       S  0.85499807  0.84011698  0.15787936    -0.33100
S2096       S  0.85915129  0.82233960  0.37629565    -0.33100
H2097       H  0.87890181  0.83595730  0.38664118     0.28300
H2098       H  0.87474072  0.85476600  0.15508797     0.28300
H2099       H  0.88067831  0.86239650  0.22999612     0.18900
H2100       H  0.83578850  0.79882811  0.30568229     0.18900
C2101       C  0.52816751  0.98012941  0.49026561    -0.07000
C2102       C  0.52609184  0.00468063  0.48559948    -0.18100
C2103       C  0.50425828  0.01647337  0.48878929     0.10200
C2104       C  0.48297861  0.00384857  0.49487017    -0.06900
C2105       C  0.48508285  0.97932182  0.50145496    -0.18100
C2106       C  0.50716420  0.96757670  0.50005983     0.10300
S2107       S  0.50470738  0.04802553  0.48355840    -0.33100
S2108       S  0.50713667  0.93621260  0.50881738    -0.33100
H2109       H  0.53033353  0.93438218  0.52400415     0.28300
H2110       H  0.48405097  0.05199989  0.50874734     0.28300
H2111       H  0.54165036  0.01484878  0.47811843     0.18900
H2112       H  0.46932861  0.96899746  0.50566015     0.18900
C2113       C  0.60336315  0.98168537  0.25541800    -0.07000
C2114       C  0.62124631  0.99719616  0.24112052    -0.18100
C2115       C  0.61921165  0.01040218  0.20077395     0.10200
C2116       C  0.59896842  0.00800759  0.17421258    -0.06900
C2117       C  0.58350504  0.98951347  0.18344299    -0.18100
C2118       C  0.58526737  0.97637938  0.22398546     0.10300
S2119       S  0.64081260  0.03250116  0.18694508    -0.33100
S2120       S  0.56389441  0.95365117  0.23417661    -0.33100
H2121       H  0.54674933  0.96237781  0.20400080     0.28300
H2122       H  0.65414674  0.03015600  0.22724564     0.28300
H2123       H  0.63617806  0.00027611  0.26294836     0.18900
H2124       H  0.56843141  0.98728926  0.16145253     0.18900
C2125       C  0.70207441  0.79773398  0.51323216    -0.07000
C2126       C  0.67796707  0.79272989  0.51326699    -0.18100
C2127       C  0.66145424  0.80995441  0.50150502     0.10200
C2128       C  0.66927412  0.83264431  0.48915818    -0.06900
C2129       C  0.69343545  0.83661627  0.48446330    -0.18100
C2130       C  0.70980083  0.81939713  0.49553640     0.10300
S2131       S  0.63102840  0.80251556  0.50768154    -0.33100
S2132       S  0.74018670  0.82728736  0.49198749    -0.33100
H2133       H  0.74693763  0.80611625  0.47087720     0.28300
H2134       H  0.62478528  0.82358685  0.52976083     0.28300
H2135       H  0.67189495  0.77602501  0.52681083     0.18900
H2136       H  0.69977622  0.85367099  0.47339423     0.18900
C2137       C  0.72627801  0.95159030  0.39224096    -0.07000
C2138       C  0.73690630  0.93192094  0.37217561    -0.18100
C2139       C  0.76057823  0.93171952  0.35998293     0.10200
C2140       C  0.77478665  0.95150542  0.37029858    -0.06900
C2141       C  0.76351991  0.97205461  0.38662114    -0.18100
C2142       C  0.73937336  0.97235740  0.39700988     0.10300
S2143       S  0.77164307  0.90563293  0.33182807    -0.33100
S2144       S  0.72594472  0.99864404  0.41944574    -0.33100
H2145       H  0.74392726  0.01402646  0.40575055     0.28300
H2146       H  0.74995998  0.89595466  0.31966879     0.28300
H2147       H  0.72648851  0.91630445  0.36657660     0.18900
H2148       H  0.77376764  0.98762624  0.39339359     0.18900
C2149       C  0.70275439  0.85776083  0.33496099    -0.07000
C2150       C  0.70892464  0.83623504  0.35577799    -0.18100
C2151       C  0.72134436  0.81866733  0.33116772     0.10200
C2152       C  0.72737234  0.82246506  0.28436897    -0.06900
C2153       C  0.72242802  0.84446984  0.26475234    -0.18100
C2154       C  0.71072491  0.86212808  0.28948667     0.10300
S2155       S  0.72749264  0.79077067  0.35850407    -0.33100
S2156       S  0.70581890  0.89024701  0.26193654    -0.33100
H2157       H  0.72215406  0.88722400  0.22614003     0.28300
H2158       H  0.72014796  0.79719902  0.40290159     0.28300
H2159       H  0.70273102  0.83257953  0.39020939     0.18900
H2160       H  0.72745053  0.84772420  0.22934602     0.18900
C2161       C  0.19781258  0.76099864  0.10504088    -0.07000
C2162       C  0.20027430  0.73820448  0.12297445    -0.18100
C2163       C  0.19800243  0.73382155  0.17001613     0.10200
C2164       C  0.19420122  0.75270696  0.20032423    -0.06900
C2165       C  0.18984953  0.77524847  0.18219705    -0.18100
C2166       C  0.19109453  0.77946821  0.13450475     0.10300
S2167       S  0.20290328  0.70422674  0.19012488    -0.33100
S2168       S  0.18670459  0.80881867  0.11232934    -0.33100
H2169       H  0.17615578  0.81787031  0.15233394     0.28300
H2170       H  0.18686426  0.70583964  0.22665690     0.28300
H2171       H  0.20514686  0.72387595  0.10036404     0.18900
H2172       H  0.18728556  0.78982505  0.20556118     0.18900
C2173       C  0.27101202  0.76320710  0.69989043    -0.07000
C2174       C  0.27275674  0.74074815  0.68024736    -0.18100
C2175       C  0.27087060  0.73776417  0.63243091     0.10200
C2176       C  0.26778237  0.75763375  0.60393085    -0.06900
C2177       C  0.26870519  0.78017017  0.62308959    -0.18100
C2178       C  0.27006880  0.78315630  0.67086549     0.10300
S2179       S  0.27136584  0.70861758  0.60794330    -0.33100
S2180       S  0.26953839  0.81242122  0.69486164    -0.33100
H2181       H  0.26663037  0.82461477  0.65308561     0.28300
H2182       H  0.27493701  0.69635581  0.64943802     0.28300
H2183       H  0.27358939  0.72548583  0.70257258     0.18900
H2184       H  0.26670464  0.79534929  0.60082936     0.18900
C2185       C  0.99597487  0.52130782  0.63863265    -0.07000
C2186       C  0.97159670  0.51976545  0.64484604    -0.18100
C2187       C  0.95965930  0.49778702  0.64456296     0.10200
C2188       C  0.97190198  0.47632846  0.63682569    -0.06900
C2189       C  0.99614033  0.47797611  0.62897995    -0.18100
C2190       C  0.00811156  0.49985116  0.62997772     0.10300
S2191       S  0.92848092  0.49728590  0.65392350    -0.33100
S2192       S  0.03922487  0.49912886  0.62053332    -0.33100
H2193       H  0.04043308  0.52109873  0.59839941     0.28300
H2194       H  0.92611013  0.52092556  0.66725719     0.28300
H2195       H  0.96194971  0.53579570  0.65150287     0.18900
H2196       H  0.00606856  0.46196605  0.62365978     0.18900
C2197       C  0.01863948  0.58302797  0.85088910    -0.07000
C2198       C  0.01645017  0.55863684  0.85768551    -0.18100
C2199       C  0.00127680  0.54996204  0.89094553     0.10200
C2200       C  0.98790534  0.56617017  0.91639766    -0.06900
C2201       C  0.99505716  0.58970825  0.91830576    -0.18100
C2202       C  0.01071033  0.59837836  0.88561806     0.10300
S2203       S  0.99763069  0.51855343  0.89751296    -0.33100
S2204       S  0.01961485  0.62874983  0.88816158    -0.33100
H2205       H  0.00807392  0.63436252  0.92950314     0.28300
H2206       H  0.00924140  0.51197532  0.85681054     0.28300
H2207       H  0.02477291  0.54637114  0.83443644     0.18900
H2208       H  0.98630203  0.60187536  0.94118567     0.18900
C2209       C  0.12238193  0.51636859  0.79455287    -0.07000
C2210       C  0.11365133  0.50225748  0.75902501    -0.18100
C2211       C  0.11096131  0.51111183  0.71454110     0.10200
C2212       C  0.11626274  0.53477840  0.70576932    -0.06900
C2213       C  0.12823328  0.54781148  0.73927804    -0.18100
C2214       C  0.13135865  0.53881207  0.78382595     0.10300
S2215       S  0.09918596  0.49276877  0.66977962    -0.33100
S2216       S  0.14502083  0.55744779  0.82587668    -0.33100
H2217       H  0.13128372  0.55009511  0.86340596     0.28300
H2218       H  0.10119252  0.47137461  0.69393600     0.28300
H2219       H  0.10802207  0.48452796  0.76662179     0.18900
H2220       H  0.13274508  0.56598004  0.73247440     0.18900
C2221       C  0.17014921  0.72171241  0.75002048    -0.07000
C2222       C  0.14822209  0.73219255  0.74138945    -0.18100
C2223       C  0.13106839  0.72082776  0.71455319     0.10200
C2224       C  0.13568062  0.69830489  0.69597590    -0.06900
C2225       C  0.15852350  0.68925398  0.70056446    -0.18100
C2226       C  0.17563466  0.70059127  0.72688585     0.10300
S2227       S  0.10307484  0.73498277  0.70877399    -0.33100
S2228       S  0.20392792  0.68669118  0.73079901    -0.33100
H2229       H  0.21662188  0.70758715  0.73701649     0.28300
H2230       H  0.09825549  0.72576052  0.66510354     0.28300
H2231       H  0.14391661  0.74874198  0.75774239     0.18900
H2232       H  0.16257470  0.67213043  0.68628575     0.18900
C2233       C  0.15299547  0.68249394  0.46285925    -0.07000
C2234       C  0.12922314  0.68623502  0.45412278    -0.18100
C2235       C  0.11246114  0.67140836  0.47330166     0.10200
C2236       C  0.11976843  0.65286728  0.50227453    -0.06900
C2237       C  0.14359165  0.64728756  0.50550180    -0.18100
C2238       C  0.16037335  0.66200064  0.48584431     0.10300
S2239       S  0.08213911  0.67754412  0.46136229    -0.33100
S2240       S  0.19103454  0.65486879  0.49110035    -0.33100
H2241       H  0.18795203  0.63236774  0.51044922     0.28300
H2242       H  0.07421597  0.65458446  0.47053969     0.28300
H2243       H  0.12366225  0.70139998  0.43423889     0.18900
H2244       H  0.14915303  0.63270270  0.52691599     0.18900
C2245       C  0.96709439  0.02780622  0.73229177    -0.07000
C2246       C  0.95548762  0.00696337  0.71912833    -0.18100
C2247       C  0.96593800  0.98433472  0.72163037     0.10200
C2248       C  0.98914924  0.98126233  0.73798164    -0.06900
C2249       C  0.00071973  0.00196284  0.75254548    -0.18100
C2250       C  0.99013401  0.02486753  0.74956801     0.10300
S2251       S  0.94875723  0.96007894  0.70074899    -0.33100
S2252       S  0.00709480  0.05041415  0.76380792    -0.33100
H2253       H  0.02894900  0.03979745  0.75558611     0.28300
H2254       H  0.96016759  0.94232141  0.72587372     0.28300
H2255       H  0.93806095  0.00837028  0.70489608     0.18900
H2256       H  0.01864054  0.00042103  0.76397562     0.18900
C2257       C  0.08263171  0.95183692  0.55851135    -0.07000
C2258       C  0.07413375  0.94298487  0.51687033    -0.18100
C2259       C  0.08629317  0.94662947  0.47572813     0.10200
C2260       C  0.10719105  0.95977969  0.47617095    -0.06900
C2261       C  0.11655019  0.96703153  0.51831911    -0.18100
C2262       C  0.10422978  0.96377457  0.55919351     0.10300
S2263       S  0.07461574  0.93502386  0.42282753    -0.33100
S2264       S  0.11619930  0.97669874  0.61056602    -0.33100
H2265       H  0.09434822  0.98195794  0.63043273     0.28300
H2266       H  0.05879619  0.91923099  0.44343670     0.28300
H2267       H  0.05816043  0.93280525  0.51668800     0.18900
H2268       H  0.13240065  0.97741774  0.51909580     0.18900
C2269       C  0.95411465  0.91561392  0.50684694    -0.07000
C2270       C  0.95855282  0.89138191  0.51025291    -0.18100
C2271       C  0.96347416  0.88073463  0.55240227     0.10200
C2272       C  0.96362685  0.89472459  0.59255237    -0.06900
C2273       C  0.95788526  0.91860712  0.58943190    -0.18100
C2274       C  0.95497450  0.92954823  0.54704759     0.10300
S2275       S  0.96958854  0.84947658  0.55324557    -0.33100
S2276       S  0.95553050  0.96137106  0.54542058    -0.33100
H2277       H  0.95487241  0.96546663  0.59306578     0.28300
H2278       H  0.97074976  0.84609050  0.50539750     0.28300
H2279       H  0.95795688  0.88058519  0.47979403     0.18900
H2280       H  0.95829211  0.92932660  0.62003554     0.18900
C2281       C  0.16649534  0.84531524  0.85040005    -0.07000
C2282       C  0.17408883  0.85820789  0.81173814    -0.18100
C2283       C  0.15967150  0.87500411  0.79128056     0.10200
C2284       C  0.13721825  0.87876117  0.80945935    -0.06900
C2285       C  0.13161591  0.86958235  0.85285641    -0.18100
C2286       C  0.14585269  0.85259140  0.87356775     0.10300
S2287       S  0.16891412  0.88785000  0.73755916    -0.33100
S2288       S  0.13526071  0.83850370  0.92543994    -0.33100
H2289       H  0.11775774  0.85508329  0.93591307     0.28300
H2290       H  0.15624039  0.90880556  0.74388295     0.28300
H2291       H  0.19056283  0.85396933  0.79518826     0.18900
H2292       H  0.11432227  0.87284735  0.86678524     0.18900
C2293       C  0.03533030  0.77319874  0.71183317    -0.07000
C2294       C  0.04259205  0.75867552  0.74855606    -0.18100
C2295       C  0.04253563  0.73383541  0.74517949     0.10200
C2296       C  0.03490610  0.72280210  0.70427363    -0.06900
C2297       C  0.02706397  0.73733148  0.66819581    -0.18100
C2298       C  0.02729178  0.76209882  0.67126312     0.10300
S2299       S  0.05403883  0.71727474  0.79296359    -0.33100
S2300       S  0.01906963  0.77924270  0.62134882    -0.33100
H2301       H  0.01636064  0.76036060  0.59074621     0.28300
H2302       H  0.06675717  0.70120600  0.76597262     0.28300
H2303       H  0.04892963  0.76674709  0.77979153     0.18900
H2304       H  0.02149365  0.72912069  0.63656202     0.18900
C2305       C  0.12873192  0.81575645  0.61609979    -0.07000
C2306       C  0.12807561  0.79161711  0.60579491    -0.18100
C2307       C  0.14428431  0.78115862  0.57473484     0.10200
C2308       C  0.16143477  0.79520412  0.55183881    -0.06900
C2309       C  0.16217451  0.81923748  0.56293190    -0.18100
C2310       C  0.14654237  0.82935746  0.59488060     0.10300
S2311       S  0.14139265  0.75021730  0.56184824    -0.33100
S2312       S  0.14956945  0.86029287  0.60627569    -0.33100
H2313       H  0.14357415  0.85816650  0.65306482     0.28300
H2314       H  0.12391922  0.74514587  0.59455078     0.28300
H2315       H  0.11398270  0.78120224  0.62011609     0.18900
H2316       H  0.17521388  0.83034058  0.54674906     0.18900
C2317       C  0.53817395  0.88384750  0.36086514    -0.07000
C2318       C  0.54851416  0.87214359  0.32337865    -0.18100
C2319       C  0.54029286  0.87551377  0.27877812     0.10200
C2320       C  0.52013790  0.88932278  0.27172404    -0.06900
C2321       C  0.50875928  0.89939191  0.30985376    -0.18100
C2322       C  0.51760586  0.89687648  0.35415749     0.10300
S2323       S  0.55697301  0.86286509  0.23229034    -0.33100
S2324       S  0.50221058  0.91006877  0.40171603    -0.33100
H2325       H  0.49049856  0.92720375  0.37535716     0.28300
H2326       H  0.55091004  0.88026231  0.19988938     0.28300
H2327       H  0.56420791  0.86173823  0.32812784     0.18900
H2328       H  0.49232669  0.90856335  0.30535945     0.18900
C2329       C  0.42054458  0.98654862  0.29932673    -0.07000
C2330       C  0.42956446  0.99665228  0.25901145    -0.18100
C2331       C  0.42660586  0.98546610  0.21708475     0.10200
C2332       C  0.41466177  0.96387537  0.21631967    -0.06900
C2333       C  0.40712453  0.95320815  0.25727942    -0.18100
C2334       C  0.41048626  0.96409258  0.29895007     0.10300
S2335       S  0.43725385  0.99995429  0.16583395    -0.33100
S2336       S  0.40090647  0.94895500  0.35038838    -0.33100
H2337       H  0.41498859  0.96169322  0.38100708     0.28300
H2338       H  0.42008140  0.99080102  0.13643094     0.28300
H2339       H  0.43706924  0.01414197  0.25963165     0.18900
H2340       H  0.39931629  0.93586144  0.25710377     0.18900
C2341       C  0.48991523  0.96197453  0.06610051    -0.07000
C2342       C  0.47416043  0.97988136  0.05251649    -0.18100
C2343       C  0.47997095  0.00414787  0.05577597     0.10200
C2344       C  0.50221614  0.01101566  0.07230146    -0.06900
C2345       C  0.51835345  0.99302064  0.08258712    -0.18100
C2346       C  0.51258985  0.96902588  0.07966296     0.10300
S2347       S  0.45757131  0.02536323  0.04247120    -0.33100
S2348       S  0.53449999  0.94807879  0.09769721    -0.33100
H2349       H  0.52554444  0.92901933  0.07265991     0.28300
H2350       H  0.46413343  0.04181712  0.07595134     0.28300
H2351       H  0.45645163  0.97508290  0.04349899     0.18900
H2352       H  0.53554468  0.99774286  0.09505092     0.18900
C2353       C  0.32632808  0.78859169  0.31945784    -0.07000
C2354       C  0.33308189  0.77939149  0.27638660    -0.18100
C2355       C  0.35168847  0.78897836  0.25051033     0.10200
C2356       C  0.36445764  0.80815447  0.26799129    -0.06900
C2357       C  0.35846236  0.81631389  0.31256376    -0.18100
C2358       C  0.33954119  0.80722701  0.33767078     0.10300
S2359       S  0.35873012  0.77623147  0.19570480    -0.33100
S2360       S  0.33206477  0.82170945  0.39074799    -0.33100
H2361       H  0.30811580  0.82345827  0.38040042     0.28300
H2362       H  0.33731664  0.76453670  0.19051461     0.28300
H2363       H  0.32344406  0.76468343  0.26256244     0.18900
H2364       H  0.36777392  0.83093984  0.32756381     0.18900
C2365       C  0.29376935  0.82365804  0.05669765    -0.07000
C2366       C  0.29876312  0.84759439  0.04777557    -0.18100
C2367       C  0.31841061  0.85863748  0.06639120     0.10200
C2368       C  0.33350900  0.84548740  0.09475491    -0.06900
C2369       C  0.32654067  0.82292189  0.10930505    -0.18100
C2370       C  0.30659357  0.81211865  0.09162760     0.10300
S2371       S  0.32507157  0.88844697  0.04912700    -0.33100
S2372       S  0.29913746  0.78357710  0.11433729    -0.33100
H2373       H  0.27494147  0.78810290  0.11496923     0.28300
H2374       H  0.30265503  0.89406055  0.03258050     0.28300
H2375       H  0.28838447  0.85728715  0.02307133     0.18900
H2376       H  0.33718749  0.81327488  0.13368295     0.18900
C2377       C  0.45603181  0.51201872  0.15720173    -0.07000
C2378       C  0.45352522  0.49802384  0.19729847    -0.18100
C2379       C  0.46108173  0.47398969  0.19911311     0.10200
C2380       C  0.47143350  0.46293664  0.15993816    -0.06900
C2381       C  0.47301706  0.47698038  0.11989695    -0.18100
C2382       C  0.46697623  0.50094973  0.11888564     0.10300
S2383       S  0.45648780  0.45835341  0.25212318    -0.33100
S2384       S  0.47701602  0.51682685  0.06881597    -0.33100
H2385       H  0.48372535  0.53699558  0.09333938     0.28300
H2386       H  0.44623329  0.43889028  0.23036898     0.28300
H2387       H  0.44520861  0.50564787  0.22726454     0.18900
H2388       H  0.48096726  0.46982119  0.08910732     0.18900
C2389       C  0.49961178  0.59749740  0.99619481    -0.07000
C2390       C  0.49613838  0.58147435  0.96000857    -0.18100
C2391       C  0.51199766  0.57994732  0.92353926     0.10200
C2392       C  0.53108141  0.59542082  0.92200315    -0.06900
C2393       C  0.53341152  0.61284258  0.95527886    -0.18100
C2394       C  0.51872839  0.61342139  0.99350927     0.10300
S2395       S  0.50788298  0.55828849  0.87904887    -0.33100
S2396       S  0.52722357  0.63267785  0.03995487    -0.33100
H2397       H  0.54009170  0.64868605  0.01296392     0.28300
H2398       H  0.48965356  0.54588673  0.90079469     0.28300
H2399       H  0.48126039  0.56977808  0.96053389     0.18900
H2400       H  0.54842691  0.62437629  0.95410891     0.18900
C2401       C  0.41095714  0.49029329  0.05999585    -0.07000
C2402       C  0.41096007  0.50649305  0.02362381    -0.18100
C2403       C  0.39611330  0.52593035  0.02449290     0.10200
C2404       C  0.38492963  0.53181025  0.06587062    -0.06900
C2405       C  0.38655143  0.51676317  0.10407625    -0.18100
C2406       C  0.39906644  0.49574256  0.10110447     0.10300
S2407       S  0.39027599  0.54239942  0.97199083    -0.33100
S2408       S  0.39907785  0.47637160  0.15032607    -0.33100
H2409       H  0.41949989  0.46408156  0.13802166     0.28300
H2410       H  0.40595626  0.52996096  0.94371448     0.28300
H2411       H  0.42110402  0.50309739  0.99307191     0.18900
H2412       H  0.37831721  0.52147509  0.13637716     0.18900
C2413       C  0.32076447  0.66048851  0.20142564    -0.07000
C2414       C  0.31666810  0.68409554  0.18895025    -0.18100
C2415       C  0.30083223  0.69834221  0.21336949     0.10200
C2416       C  0.28897447  0.68885128  0.25199149    -0.06900
C2417       C  0.29158516  0.66451672  0.26129473    -0.18100
C2418       C  0.30736302  0.65037943  0.23677850     0.10300
S2419       S  0.29745608  0.72868740  0.19599736    -0.33100
S2420       S  0.31202594  0.62018156  0.25410878    -0.33100
H2421       H  0.29508940  0.61952721  0.28926074     0.28300
H2422       H  0.30550204  0.72565199  0.15064132     0.28300
H2423       H  0.32690004  0.69174601  0.16134211     0.18900
H2424       H  0.28205995  0.65662945  0.28958901     0.18900
C2425       C  0.45669052  0.76629777  0.16394531    -0.07000
C2426       C  0.47139954  0.75398083  0.13377267    -0.18100
C2427       C  0.47114300  0.72923169  0.13246670     0.10200
C2428       C  0.45545395  0.71676767  0.16146723    -0.06900
C2429       C  0.44283265  0.72937576  0.19490003    -0.18100
C2430       C  0.44317056  0.75380079  0.19629280     0.10300
S2431       S  0.48964480  0.71447007  0.09141441    -0.33100
S2432       S  0.42473663  0.76801813  0.23847949    -0.33100
H2433       H  0.43818280  0.78857286  0.24245878     0.28300
H2434       H  0.50526938  0.73327389  0.08477491     0.28300
H2435       H  0.48191757  0.76374669  0.10926645     0.18900
H2436       H  0.43143277  0.72017396  0.21872279     0.18900
C2437       C  0.36626790  0.70600976  0.03759567    -0.07000
C2438       C  0.36439275  0.70318164  0.98943921    -0.18100
C2439       C  0.34672354  0.71419779  0.96354231     0.10200
C2440       C  0.33024973  0.72874066  0.98596450    -0.06900
C2441       C  0.33346742  0.73318557  0.03338294    -0.18100
C2442       C  0.35131683  0.72228681  0.05899774     0.10300
S2443       S  0.34464897  0.70780584  0.90288379    -0.33100
S2444       S  0.35513677  0.72992739  0.11840690    -0.33100
H2445       H  0.34247320  0.75104125  0.11517631     0.28300
H2446       H  0.36646672  0.69659231  0.89828225     0.28300
H2447       H  0.37609612  0.69119186  0.97201430     0.18900
H2448       H  0.32154869  0.74493179  0.05098192     0.18900
loop_ 
_geom_bond_atom_site_label_1 
_geom_bond_atom_site_label_2 
_geom_bond_distance 
_geom_bond_site_symmetry_2 
_ccdc_geom_bond_type 
Zr1           O2   2.440       .  S
Zr1           O3   2.424       .  S
Zr1           O4   2.441       .  S
Zr1           O7   2.419       .  S
Zr1           O9   2.376       .  S
Zr1          O10   2.407       .  S
Zr1          O11   2.395       .  S
Zr1          O12   2.408       .  S
O2           H58   0.987       .  S
O2           H66   0.991   1_554  S
O3           C23   1.282       .  A
O4           C25   1.283       .  A
O5          Zr15   2.405       .  S
O5           C24   1.266       .  A
O6          Zr14   2.390       .  S
O6           C25   1.274       .  A
O7           C24   1.273       .  A
O8          Zr16   2.539       .  S
O8           C23   1.303       .  A
O9          Zr14   2.402       .  S
O9          Zr16   2.367       .  S
O10         Zr15   2.451       .  S
O10         Zr16   2.349       .  S
O10          H45   0.965       .  S
O11         Zr14   2.395       .  S
O11         Zr31   2.360       .  S
O11          H48   0.964       .  S
O12         Zr15   2.439       .  S
O12         Zr31   2.369       .  S
Zr13         O38   2.440       .  S
Zr13         O32   2.498       .  S
Zr13         O40   2.380       .  S
Zr13         O28   2.401       .  S
Zr13         O19   2.426       .  S
Zr13         O20   2.427       .  S
Zr13         O21   2.357       .  S
Zr13         O22   2.375       .  S
Zr14         O33   2.433       .  S
Zr14         O26   2.434       .  S
Zr14         O27   2.450       .  S
Zr14         O20   2.387       .  S
Zr14         O21   2.376       .  S
Zr15         O17   2.434       .  S
Zr15         O39   2.436       .  S
Zr15         O41   2.479       .  S
Zr15         O19   2.386       .  S
Zr15         O22   2.375       .  S
Zr16         O42   2.435       .  S
Zr16         O43   2.436       .  S
Zr16         O18   2.436       .  S
Zr16         O19   2.448       .  S
Zr16         O20   2.444       .  S
O17          H54   0.990       .  S
O18          H49   0.990       .  S
O18          H63   0.989       .  S
O20          H46   0.966       .  S
O21         Zr31   2.381       .  S
O22         Zr31   2.380       .  S
O22          H47   0.966       .  S
C23        C2377   1.536       .  S
C24        C2404   1.454       .  S
C25        C2389   1.479   1_554  S
O26          H62   0.990       .  S
O27          C29   1.285       .  A
O28          C29   1.280       .  A
C29        C2428   1.488       .  S
O30         Zr31   2.436   1_556  S
O30          H59   0.990       .  S
Zr31         O34   2.436   1_554  S
Zr31         O35   2.437       .  S
Zr31         O36   2.382       .  S
O32          C37   1.293       .  A
O33          H50   0.990       .  S
O33          H65   0.989       .  S
O34          H51   0.990       .  S
O35          H55   0.990   1_554  S
O35          H64   0.990       .  S
O36          C37   1.268       .  A
C37        C2437   1.501       .  S
O38          H57   0.990       .  S
O38          H61   0.990       .  S
O39          H53   0.990       .  S
O39          H60   0.990       .  S
O40          C44   1.275       .  A
O41          C44   1.293       .  A
O42          H52   0.990       .  S
O43          H56   0.990       .  S
C44        C2413   1.480       .  S
Zr67         O68   2.440       .  S
Zr67         O69   2.385       .  S
Zr67         O70   2.428       .  S
Zr67         O73   2.404       .  S
Zr67         O75   2.375       .  S
Zr67         O76   2.403       .  S
Zr67         O77   2.396       .  S
Zr67         O78   2.399       .  S
O68         H124   0.990       .  S
O68         H132   0.990       .  S
O69          C89   1.275       .  A
O70          C91   1.285       .  A
O71         Zr81   2.396       .  S
O71          C90   1.277       .  A
O72         Zr80   2.413       .  S
O72          C91   1.280       .  A
O73          C90   1.267       .  A
O74         Zr82   2.544       .  S
O74          C89   1.303       .  A
O75         Zr80   2.398       .  S
O75         Zr82   2.368       .  S
O76         Zr81   2.387       .  S
O76         Zr82   2.336       .  S
O76         H111   0.965       .  S
O77         Zr80   2.400       .  S
O77         Zr97   2.353       .  S
O77         H114   0.964       .  S
O78         Zr81   2.418       .  S
O78         Zr97   2.370       .  S
Zr79        O104   2.439       .  S
Zr79         O98   2.506       .  S
Zr79        O106   2.394       .  S
Zr79         O94   2.413       .  S
Zr79         O85   2.433       .  S
Zr79         O86   2.430       .  S
Zr79         O87   2.358       .  S
Zr79         O88   2.368       .  S
Zr80         O99   2.442       .  S
Zr80         O92   2.435       .  S
Zr80         O93   2.428       .  S
Zr80         O86   2.383       .  S
Zr80         O87   2.394       .  S
Zr81         O83   2.436       .  S
Zr81        O105   2.435       .  S
Zr81        O107   2.452       .  S
Zr81         O85   2.383       .  S
Zr81         O88   2.386       .  S
Zr82        O108   2.435   1_554  S
Zr82        O109   2.438   1_554  S
Zr82         O84   2.440       .  S
Zr82         O85   2.450       .  S
Zr82         O86   2.443       .  S
O83         H120   0.990       .  S
O84         H115   0.990       .  S
O84         H129   0.990       .  S
O86         H112   0.966       .  S
O87         Zr97   2.378       .  S
O88         Zr97   2.380       .  S
O88         H113   0.965       .  S
C89        C2341   1.508       .  S
C90        C2332   1.436       .  S
C91        C2320   1.465       .  S
O92         H128   0.990       .  S
O93          C95   1.281       .  A
O94          C95   1.280       .  A
C95        C2425   1.466       .  S
O96         Zr97   2.436       .  S
O96         H125   0.990       .  S
Zr97        O100   2.437       .  S
Zr97        O101   2.437       .  S
Zr97        O102   2.372       .  S
O98         C103   1.297       .  A
O99         H116   0.990       .  S
O99         H131   0.990       .  S
O100        H117   0.990       .  S
O101        H121   0.990       .  S
O101        H130   0.990       .  S
O102        C103   1.273       .  A
C103       C2356   1.510       .  S
O104        H123   0.990       .  S
O104        H127   0.991       .  S
O105        H119   0.990       .  S
O105        H126   0.990       .  S
O106        C110   1.278       .  A
O107        C110   1.286       .  A
O108        H118   0.990       .  S
O109        H122   0.990   1_556  S
C110       C2368   1.481       .  S
Zr133       O134   2.426       .  S
Zr133       O135   2.435       .  S
Zr133       O136   2.427   1_455  S
Zr133       O139   2.446       .  S
Zr133       O141   2.387       .  S
Zr133       O142   2.387       .  S
Zr133       O143   2.433       .  S
Zr133       O144   2.360       .  S
O134        H190   0.987   1_455  S
O134        H198   0.989       .  S
O135        C155   1.285       .  A
O136        C157   1.273       .  A
O137       Zr147   2.400       .  S
O137        C156   1.279       .  A
O138       Zr146   2.401   1_655  S
O138        C157   1.268       .  A
O139        C156   1.289       .  A
O140       Zr148   2.573       .  S
O140        C155   1.311       .  A
O141       Zr146   2.416       .  S
O141       Zr148   2.358       .  S
O142       Zr147   2.385       .  S
O142       Zr148   2.361       .  S
O142        H177   0.965       .  S
O143       Zr146   2.444       .  S
O143       Zr163   2.392       .  S
O143        H180   0.965       .  S
O144       Zr147   2.356       .  S
O144       Zr163   2.352       .  S
Zr145       O170   2.443       .  S
Zr145       O164   2.549       .  S
Zr145       O172   2.396       .  S
Zr145       O160   2.473       .  S
Zr145       O152   2.447       .  S
Zr145       O153   2.356       .  S
Zr145       O154   2.372       .  S
Zr145       O151   2.349       .  S
Zr146       O165   2.444   1_455  S
Zr146       O158   2.434   1_455  S
Zr146       O159   2.460       .  S
Zr146       O152   2.392       .  S
Zr146       O153   2.391       .  S
Zr147       O149   2.433       .  S
Zr147       O171   2.439       .  S
Zr147       O173   2.428       .  S
Zr147       O154   2.391       .  S
Zr147       O151   2.270       .  S
Zr148       O174   2.436       .  S
Zr148       O175   2.439       .  S
Zr148       O150   2.437   1_455  S
Zr148       O152   2.478       .  S
Zr148       O151   2.337       .  S
O149        H186   0.990       .  S
O150        H181   0.991       .  S
O150        H195   0.990       .  S
O152        H178   0.967       .  S
O153       Zr163   2.365       .  S
O154       Zr163   2.405       .  S
O154        H179   0.963       .  S
C155       C2248   1.539   1_455  S
C156       C2257   1.460       .  S
C157       C2272   1.468       .  S
O158        H194   0.990       .  S
O159        C161   1.288       .  A
O160        C161   1.290       .  A
C161       C2293   1.511       .  S
O162       Zr163   2.438       .  S
O162        H191   0.990       .  S
Zr163       O166   2.436       .  S
Zr163       O167   2.437       .  S
Zr163       O168   2.394       .  S
O164        C169   1.306       .  A
O165        H182   0.990       .  S
O165        H197   0.991       .  S
O166        H183   0.990       .  S
O167        H187   0.990       .  S
O167        H196   0.990       .  S
O168        C169   1.275       .  A
C169       C2305   1.507       .  S
O170        H189   0.991       .  S
O170        H193   0.990       .  S
O171        H185   0.990       .  S
O171        H192   0.990       .  S
O172        C176   1.278       .  A
O173        C176   1.280       .  A
O174        H184   0.990       .  S
O175        H188   0.990       .  S
C176       C2284   1.459       .  S
Zr199       O200   2.443       .  S
Zr199       O201   2.456       .  S
Zr199       O202   2.392       .  S
Zr199       O205   2.433       .  S
Zr199       O207   2.390       .  S
Zr199       O208   2.370       .  S
Zr199       O209   2.430       .  S
Zr199       O210   2.386       .  S
O200        H256   0.990       .  S
O200        H264   0.990       .  S
O201        C221   1.286       .  A
O202        C223   1.278       .  A
O203       Zr213   2.447       .  S
O203        C222   1.282       .  A
O204       Zr212   2.440       .  S
O204        C223   1.286       .  A
O205        C222   1.275       .  A
O206       Zr214   2.517       .  S
O206        C221   1.298       .  A
O207       Zr212   2.430       .  S
O207       Zr214   2.375       .  S
O208       Zr213   2.400       .  S
O208       Zr214   2.367       .  S
O208        H243   0.965       .  S
O209       Zr212   2.416       .  S
O209       Zr229   2.367       .  S
O209        H246   0.963       .  S
O210       Zr213   2.381       .  S
O210       Zr229   2.360       .  S
Zr211       O236   2.439       .  S
Zr211       O230   2.512       .  S
Zr211       O238   2.398       .  S
Zr211       O226   2.412       .  S
Zr211       O217   2.428       .  S
Zr211       O218   2.428       .  S
Zr211       O219   2.368       .  S
Zr211       O220   2.377       .  S
Zr212       O231   2.435       .  S
Zr212       O224   2.435   1_455  S
Zr212       O225   2.507       .  S
Zr212       O218   2.390       .  S
Zr212       O219   2.383       .  S
Zr213       O215   2.435       .  S
Zr213       O237   2.438       .  S
Zr213       O239   2.416       .  S
Zr213       O217   2.396       .  S
Zr213       O220   2.404       .  S
Zr214       O240   2.437       .  S
Zr214       O241   2.437       .  S
Zr214       O216   2.438   1_455  S
Zr214       O217   2.434       .  S
Zr214       O218   2.446       .  S
O215        H252   0.991       .  S
O216        H247   0.990       .  S
O216        H261   0.990       .  S
O218        H244   0.966       .  S
O219       Zr229   2.373       .  S
O220       Zr229   2.379       .  S
O220        H245   0.966       .  S
C221       C2185   1.529   1_455  S
C222       C2212   1.468       .  S
C223       C2197   1.469       .  S
O224        H260   0.990       .  S
O225        C227   1.295       .  A
O226        C227   1.280       .  A
C227       C2296   1.506       .  S
O228       Zr229   2.431       .  S
O228        H257   0.990       .  S
Zr229       O232   2.435       .  S
Zr229       O233   2.438       .  S
Zr229       O234   2.381       .  S
O230        C235   1.298       .  A
O231        H248   0.990       .  S
O231        H263   0.990       .  S
O232        H249   0.990       .  S
O233        H253   0.990       .  S
O233        H262   0.990       .  S
O234        C235   1.274       .  A
C235       C2224   1.499       .  S
O236        H255   0.990       .  S
O236        H259   0.990       .  S
O237        H251   0.990       .  S
O237        H258   0.990       .  S
O238        C242   1.278       .  A
O239        C242   1.280       .  A
O240        H250   0.990       .  S
O241        H254   0.990   1_455  S
C242       C2236   1.460       .  S
Zr265       O266   2.442       .  S
Zr265       O267   2.452       .  S
Zr265       O268   2.431       .  S
Zr265       O271   2.450       .  S
Zr265       O273   2.384       .  S
Zr265       O274   2.388       .  S
Zr265       O275   2.422       .  S
Zr265       O276   2.378       .  S
O266        H322   0.990       .  S
O266        H330   0.990       .  S
O267        C287   1.285       .  A
O268        C289   1.283       .  A
O269       Zr279   2.426       .  S
O269        C288   1.282       .  A
O270       Zr278   2.444       .  S
O270        C289   1.286       .  A
O271        C288   1.290       .  A
O272       Zr280   2.464       .  S
O272        C287   1.289       .  A
O273       Zr278   2.410       .  S
O273       Zr280   2.371       .  S
O274       Zr279   2.405       .  S
O274       Zr280   2.381       .  S
O274        H309   0.965       .  S
O275       Zr278   2.414       .  S
O275       Zr295   2.406       .  S
O275        H312   0.966       .  S
O276       Zr279   2.381       .  S
O276       Zr295   2.354       .  S
Zr277       O302   2.440   1_556  S
Zr277       O296   2.455   1_556  S
Zr277       O304   2.406   1_556  S
Zr277       O292   2.389       .  S
Zr277       O283   2.403       .  S
Zr277       O284   2.409       .  S
Zr277       O285   2.373       .  S
Zr277       O286   2.371       .  S
Zr278       O297   2.438       .  S
Zr278       O290   2.433       .  S
Zr278       O291   2.488       .  S
Zr278       O284   2.387       .  S
Zr278       O285   2.382       .  S
Zr279       O281   2.435       .  S
Zr279       O303   2.438       .  S
Zr279       O305   2.447   1_556  S
Zr279       O283   2.386       .  S
Zr279       O286   2.389       .  S
Zr280       O306   2.435       .  S
Zr280       O307   2.438       .  S
Zr280       O282   2.438       .  S
Zr280       O283   2.411       .  S
Zr280       O284   2.419       .  S
O281        H318   0.990       .  S
O282        H313   0.990       .  S
O282        H327   0.990       .  S
O284        H310   0.966       .  S
O285       Zr295   2.370       .  S
O286       Zr295   2.390       .  S
O286        H311   0.966   1_556  S
C287       C2221   1.500       .  S
C288       C2281   1.481       .  S
C289       C2173   1.478       .  S
O290        H326   0.990       .  S
O291        C293   1.295       .  A
O292        C293   1.277       .  A
C293       C2440   1.503       .  S
O294       Zr295   2.438       .  S
O294        H323   0.990       .  S
Zr295       O298   2.434       .  S
Zr295       O299   2.440       .  S
Zr295       O300   2.392       .  S
O296        C301   1.287       .  A
O297        H314   0.990       .  S
O297        H329   0.990       .  S
O298        H315   0.990       .  S
O299        H319   0.990       .  S
O299        H328   0.990       .  S
O300        C301   1.278   1_556  A
C301       C2365   1.494       .  S
O302        H321   0.991       .  S
O302        H325   0.990       .  S
O303        H317   0.990       .  S
O303        H324   0.990       .  S
O304        C308   1.279       .  A
O305        C308   1.284       .  A
O306        H316   0.990       .  S
O307        H320   0.990       .  S
C308       C2161   1.474       .  S
Zr331       O332   2.440       .  S
Zr331       O333   2.445       .  S
Zr331       O334   2.438       .  S
Zr331       O337   2.445       .  S
Zr331       O339   2.383       .  S
Zr331       O340   2.386       .  S
Zr331       O341   2.406       .  S
Zr331       O342   2.394       .  S
O332        H388   0.990       .  S
O332        H396   0.990       .  S
O333        C353   1.285       .  A
O334        C355   1.286       .  A
O335       Zr345   2.389       .  S
O335        C354   1.275       .  A
O336       Zr344   2.432       .  S
O336        C355   1.284       .  A
O337        C354   1.287       .  A
O338       Zr346   2.495       .  S
O338        C353   1.296       .  A
O339       Zr344   2.407       .  S
O339       Zr346   2.366       .  S
O340       Zr345   2.400       .  S
O340       Zr346   2.367       .  S
O340        H375   0.965       .  S
O341       Zr344   2.406       .  S
O341       Zr361   2.388       .  S
O341        H378   0.965       .  S
O342       Zr345   2.406       .  S
O342       Zr361   2.378       .  S
Zr343       O368   2.442       .  S
Zr343       O362   2.472       .  S
Zr343       O370   2.412       .  S
Zr343       O358   2.406       .  S
Zr343       O349   2.413       .  S
Zr343       O350   2.422       .  S
Zr343       O351   2.371       .  S
Zr343       O352   2.375       .  S
Zr344       O363   2.435       .  S
Zr344       O356   2.436       .  S
Zr344       O357   2.474       .  S
Zr344       O350   2.390       .  S
Zr344       O351   2.384       .  S
Zr345       O347   2.435       .  S
Zr345       O369   2.439       .  S
Zr345       O371   2.444       .  S
Zr345       O349   2.380       .  S
Zr345       O352   2.386       .  S
Zr346       O372   2.435       .  S
Zr346       O373   2.437       .  S
Zr346       O348   2.437       .  S
Zr346       O349   2.418       .  S
Zr346       O350   2.431       .  S
O347        H384   0.990       .  S
O348        H379   0.990       .  S
O348        H393   0.990       .  S
O350        H376   0.966       .  S
O351       Zr361   2.373       .  S
O352       Zr361   2.392       .  S
O352        H377   0.966       .  S
C353       C2308   1.521       .  S
C354       C2233   1.456       .  S
C355       C2176   1.474       .  S
O356        H392   0.990       .  S
O357        C359   1.292       .  A
O358        C359   1.279       .  A
C359       C2353   1.497       .  S
O360       Zr361   2.439       .  S
O360        H389   0.990       .  S
Zr361       O364   2.436       .  S
Zr361       O365   2.438       .  S
Zr361       O366   2.392       .  S
O362        C367   1.290       .  A
O363        H380   0.990       .  S
O363        H395   0.990       .  S
O364        H381   0.990       .  S
O365        H385   0.990       .  S
O365        H394   0.990       .  S
O366        C367   1.277       .  A
C367       C2416   1.500       .  S
O368        H387   0.991       .  S
O368        H391   0.990       .  S
O369        H383   0.990       .  S
O369        H390   0.989       .  S
O370        C374   1.279       .  A
O371        C374   1.284       .  A
O372        H382   0.990       .  S
O373        H386   0.990       .  S
C374       C2164   1.471       .  S
Zr397       O398   2.431       .  S
Zr397       O399   2.440       .  S
Zr397       O400   2.442       .  S
Zr397       O403   2.470       .  S
Zr397       O405   2.386       .  S
Zr397       O406   2.393       .  S
Zr397       O407   2.424       .  S
Zr397       O408   2.372       .  S
O398        H454   0.990       .  S
O398        H462   0.989       .  S
O399        C419   1.284       .  A
O400        C421   1.274       .  A
O401       Zr411   2.425       .  S
O401        C420   1.285       .  A
O402       Zr410   2.413       .  S
O402        C421   1.271       .  A
O403        C420   1.292       .  A
O404       Zr412   2.536       .  S
O404        C419   1.302       .  A
O405       Zr410   2.421       .  S
O405       Zr412   2.362       .  S
O406       Zr411   2.423       .  S
O406       Zr412   2.381       .  S
O406        H441   0.966       .  S
O407       Zr410   2.438       .  S
O407       Zr427   2.364       .  S
O407        H444   0.959       .  S
O408       Zr411   2.374       .  S
O408       Zr427   2.355       .  S
Zr409       O434   2.438       .  S
Zr409       O428   2.508       .  S
Zr409       O436   2.418       .  S
Zr409       O424   2.387       .  S
Zr409       O415   2.424       .  S
Zr409       O416   2.439       .  S
Zr409       O417   2.375       .  S
Zr409       O418   2.366       .  S
Zr410       O429   2.442       .  S
Zr410       O422   2.433       .  S
Zr410       O423   2.464       .  S
Zr410       O416   2.401       .  S
Zr410       O417   2.391       .  S
Zr411       O413   2.440       .  S
Zr411       O435   2.437       .  S
Zr411       O437   2.473       .  S
Zr411       O415   2.373       .  S
Zr411       O418   2.398       .  S
Zr412       O438   2.438       .  S
Zr412       O439   2.436       .  S
Zr412       O414   2.436       .  S
Zr412       O415   2.450       .  S
Zr412       O416   2.448       .  S
O413        H450   0.990   1_565  S
O414        H445   0.990       .  S
O414        H459   0.990       .  S
O416        H442   0.966       .  S
O417       Zr427   2.370       .  S
O418       Zr427   2.372       .  S
O418        H443   0.964       .  S
C419       C2101   1.530       .  S
C420       C2113   1.487       .  S
C421       C2317   1.467       .  S
O422        H458   0.990       .  S
O423        C425   1.285       .  A
O424        C425   1.272       .  A
C425       C2128   1.478       .  S
O426       Zr427   2.435       .  S
O426        H455   0.990       .  S
Zr427       O430   2.436       .  S
Zr427       O431   2.438       .  S
Zr427       O432   2.398       .  S
O428        C433   1.297       .  A
O429        H446   0.990       .  S
O429        H461   0.991       .  S
O430        H447   0.990       .  S
O431        H451   0.989       .  S
O431        H460   0.990       .  S
O432        C433   1.278       .  A
C433       C2149   1.503       .  S
O434        H453   0.990       .  S
O434        H457   0.990       .  S
O435        H449   0.990       .  S
O435        H456   0.990   1_565  S
O436        C440   1.283       .  A
O437        C440   1.289       .  A
O438        H448   0.990       .  S
O439        H452   0.990       .  S
C440       C2137   1.485       .  S
Zr463       O464   2.437       .  S
Zr463       O465   2.437       .  S
Zr463       O466   2.386       .  S
Zr463       O469   2.448   1_565  S
Zr463       O471   2.410       .  S
Zr463       O472   2.357       .  S
Zr463       O473   2.343       .  S
Zr463       O474   2.402       .  S
O464        H520   0.990   1_565  S
O464        H528   0.991       .  S
O465        C485   1.279       .  A
O466        C487   1.272       .  A
O467       Zr477   2.390   1_545  S
O467        C486   1.275       .  A
O468       Zr476   2.417       .  S
O468        C487   1.280       .  A
O469        C486   1.288       .  A
O470       Zr478   2.521       .  S
O470        C485   1.297       .  A
O471       Zr476   2.421       .  S
O471       Zr478   2.387       .  S
O472       Zr477   2.421       .  S
O472       Zr478   2.395       .  S
O472        H507   0.966   1_565  S
O473       Zr476   2.349       .  S
O473       Zr493   2.353       .  S
O473        H510   0.958       .  S
O474       Zr477   2.434       .  S
O474       Zr493   2.402       .  S
Zr475       O500   2.439       .  S
Zr475       O494   2.518       .  S
Zr475       O502   2.425       .  S
Zr475       O490   2.374       .  S
Zr475       O481   2.440       .  S
Zr475       O482   2.455       .  S
Zr475       O483   2.386       .  S
Zr475       O484   2.376       .  S
Zr476       O495   2.441       .  S
Zr476       O488   2.433       .  S
Zr476       O489   2.451       .  S
Zr476       O482   2.381       .  S
Zr476       O483   2.401       .  S
Zr477       O479   2.438   1_565  S
Zr477       O501   2.435   1_565  S
Zr477       O503   2.458       .  S
Zr477       O481   2.389       .  S
Zr477       O484   2.413       .  S
Zr478       O504   2.437       .  S
Zr478       O505   2.434       .  S
Zr478       O480   2.436       .  S
Zr478       O481   2.463       .  S
Zr478       O482   2.437       .  S
O479        H516   0.991   1_545  S
O480        H511   0.990       .  S
O480        H525   0.990       .  S
O482        H508   0.965       .  S
O483       Zr493   2.384       .  S
O484       Zr493   2.369       .  S
O484        H509   0.966       .  S
C485       C2053   1.523       .  S
C486       C2065   1.457       .  S
C487       C2269   1.475       .  S
O488        H524   0.990       .  S
O489        C491   1.286       .  A
O490        C491   1.272       .  A
C491       C2089   1.454       .  S
O492       Zr493   2.429       .  S
O492        H521   0.990       .  S
Zr493       O496   2.431       .  S
Zr493       O497   2.437       .  S
Zr493       O498   2.384       .  S
O494        C499   1.299       .  A
O495        H512   0.990       .  S
O495        H527   0.987       .  S
O496        H513   0.990       .  S
O497        H517   0.990       .  S
O497        H526   0.990       .  S
O498        C499   1.274       .  A
C499       C2080   1.520       .  S
O500        H519   0.990       .  S
O500        H523   0.990       .  S
O501        H515   0.990       .  S
O501        H522   0.990       .  S
O502        C506   1.282       .  A
O503        C506   1.288       .  A
O504        H514   0.990   1_565  S
O505        H518   0.990       .  S
C506       C2140   1.506       .  S
Zr529       O530   2.433   1_556  S
Zr529       O531   2.375       .  S
Zr529       O532   2.425       .  S
Zr529       O535   2.435   1_556  S
Zr529       O537   2.371       .  S
Zr529       O538   2.384       .  S
Zr529       O539   2.400       .  S
Zr529       O540   2.382   1_556  S
O530        H586   0.990       .  S
O530        H594   0.990       .  S
O531        C551   1.277       .  A
O532        C553   1.269       .  A
O533       Zr543   2.401   1_554  S
O533        C552   1.278       .  A
O534       Zr542   2.407       .  S
O534        C553   1.268       .  A
O535        C552   1.289       .  A
O536       Zr544   2.548       .  S
O536        C551   1.304       .  A
O537       Zr542   2.414       .  S
O537       Zr544   2.340       .  S
O538       Zr543   2.415       .  S
O538       Zr544   2.372       .  S
O538        H573   0.966       .  S
O539       Zr542   2.432       .  S
O539       Zr559   2.365       .  S
O539        H576   0.964       .  S
O540       Zr543   2.392   1_554  S
O540       Zr559   2.353   1_554  S
Zr541       O566   2.438       .  S
Zr541       O560   2.483       .  S
Zr541       O568   2.402       .  S
Zr541       O556   2.386       .  S
Zr541       O547   2.421       .  S
Zr541       O548   2.422       .  S
Zr541       O549   2.373       .  S
Zr541       O550   2.363       .  S
Zr542       O561   2.436       .  S
Zr542       O554   2.433       .  S
Zr542       O555   2.450       .  S
Zr542       O548   2.403       .  S
Zr542       O549   2.376       .  S
Zr543       O545   2.432   1_556  S
Zr543       O567   2.434       .  S
Zr543       O569   2.475       .  S
Zr543       O547   2.383       .  S
Zr543       O550   2.366       .  S
Zr544       O570   2.440       .  S
Zr544       O571   2.435       .  S
Zr544       O546   2.436       .  S
Zr544       O547   2.446       .  S
Zr544       O548   2.456       .  S
O545        H582   0.990       .  S
O546        H577   0.990       .  S
O546        H591   0.990       .  S
O548        H574   0.966       .  S
O549       Zr559   2.385       .  S
O550       Zr559   2.391       .  S
O550        H575   0.966       .  S
C551       C1993   1.519       .  S
C552       C2005   1.478       .  S
C553       C2392   1.456       .  S
O554        H590   0.990       .  S
O555        C557   1.286       .  A
O556        C557   1.275       .  A
C557       C2017   1.469       .  S
O558       Zr559   2.440   1_554  S
O558        H587   0.990       .  S
Zr559       O562   2.437       .  S
Zr559       O563   2.439   1_556  S
Zr559       O564   2.352       .  S
O560        C565   1.293       .  A
O561        H578   0.990       .  S
O561        H593   0.990       .  S
O562        H579   0.990       .  S
O563        H583   0.990       .  S
O563        H592   0.990       .  S
O564        C565   1.270       .  A
C565       C2041   1.462       .  S
O566        H585   0.991       .  S
O566        H589   0.990       .  S
O567        H581   0.990       .  S
O567        H588   0.990   1_556  S
O568        C572   1.276       .  A
O569        C572   1.290       .  A
O570        H580   0.989       .  S
O571        H584   0.990       .  S
C572       C2029   1.485       .  S
Zr595       O596   2.441       .  S
Zr595       O597   2.433       .  S
Zr595       O598   2.403       .  S
Zr595       O601   2.430       .  S
Zr595       O603   2.371       .  S
Zr595       O604   2.386       .  S
Zr595       O605   2.427       .  S
Zr595       O606   2.382       .  S
O596        H652   0.990       .  S
O596        H660   0.990       .  S
O597        C617   1.280   1_556  A
O598        C619   1.280       .  A
O599       Zr609   2.413       .  S
O599        C618   1.274       .  A
O600       Zr608   2.411       .  S
O600        C619   1.280       .  A
O601        C618   1.285       .  A
O602       Zr610   2.534       .  S
O602        C617   1.300       .  A
O603       Zr608   2.383       .  S
O603       Zr610   2.329   1_556  S
O604       Zr609   2.420       .  S
O604       Zr610   2.382   1_556  S
O604        H639   0.966       .  S
O605       Zr608   2.405       .  S
O605       Zr625   2.406       .  S
O605        H642   0.966       .  S
O606       Zr609   2.391       .  S
O606       Zr625   2.363       .  S
Zr607       O632   2.436   1_556  S
Zr607       O626   2.501       .  S
Zr607       O634   2.457       .  S
Zr607       O622   2.397       .  S
Zr607       O613   2.423   1_556  S
Zr607       O614   2.439   1_556  S
Zr607       O615   2.367       .  S
Zr607       O616   2.371       .  S
Zr608       O627   2.438       .  S
Zr608       O620   2.436   1_556  S
Zr608       O621   2.438       .  S
Zr608       O614   2.398   1_556  S
Zr608       O615   2.369       .  S
Zr609       O611   2.435       .  S
Zr609       O633   2.438   1_556  S
Zr609       O635   2.439       .  S
Zr609       O613   2.380   1_556  S
Zr609       O616   2.405       .  S
Zr610       O636   2.436       .  S
Zr610       O637   2.435       .  S
Zr610       O612   2.436       .  S
Zr610       O613   2.448       .  S
Zr610       O614   2.437       .  S
O611        H648   0.990       .  S
O612        H643   0.990       .  S
O612        H657   0.990       .  S
O614        H640   0.966       .  S
O615       Zr625   2.347       .  S
O616       Zr625   2.390       .  S
O616        H641   0.965       .  S
C617       C1945   1.526       .  S
C618       C1957   1.466       .  S
C619       C2200   1.462       .  S
O620        H656   0.990       .  S
O621        C623   1.284       .  A
O622        C623   1.281       .  A
C623       C1981   1.466       .  S
O624       Zr625   2.435       .  S
O624        H653   0.990       .  S
Zr625       O628   2.437       .  S
Zr625       O629   2.438       .  S
Zr625       O630   2.410       .  S
O626        C631   1.297       .  A
O627        H644   0.990       .  S
O627        H659   0.990       .  S
O628        H645   0.989       .  S
O629        H649   0.990       .  S
O629        H658   0.990       .  S
O630        C631   1.279       .  A
C631       C1969   1.502       .  S
O632        H651   0.990       .  S
O632        H655   0.990       .  S
O633        H647   0.989       .  S
O633        H654   0.990       .  S
O634        C638   1.289       .  A
O635        C638   1.284       .  A
O636        H646   0.990       .  S
O637        H650   0.990       .  S
C638       C2032   1.488       .  S
Zr661       O662   2.439       .  S
Zr661       O663   2.448       .  S
Zr661       O664   2.394       .  S
Zr661       O667   2.395       .  S
Zr661       O669   2.369       .  S
Zr661       O670   2.381       .  S
Zr661       O671   2.406       .  S
Zr661       O672   2.406       .  S
O662        H718   0.990       .  S
O662        H726   0.990       .  S
O663        C683   1.286       .  A
O664        C685   1.276       .  A
O665       Zr675   2.516       .  S
O665        C684   1.301       .  A
O666       Zr674   2.513       .  S
O666        C685   1.299       .  A
O667        C684   1.278       .  A
O668       Zr676   2.389       .  S
O668        C683   1.277       .  A
O669       Zr674   2.377       .  S
O669       Zr676   2.380       .  S
O670       Zr675   2.389       .  S
O670       Zr676   2.374       .  S
O670        H705   0.966       .  S
O671       Zr674   2.390       .  S
O671       Zr691   2.413       .  S
O671        H708   0.966       .  S
O672       Zr675   2.391       .  S
O672       Zr691   2.423       .  S
Zr673       O698   2.438       .  S
Zr673       O692   2.428       .  S
Zr673       O700   2.442       .  S
Zr673       O688   2.412       .  S
Zr673       O679   2.400       .  S
Zr673       O680   2.404       .  S
Zr673       O681   2.390       .  S
Zr673       O682   2.380       .  S
Zr674       O693   2.434       .  S
Zr674       O686   2.436       .  S
Zr674       O687   2.451       .  S
Zr674       O680   2.415       .  S
Zr674       O681   2.412       .  S
Zr675       O677   2.435       .  S
Zr675       O699   2.434       .  S
Zr675       O701   2.471       .  S
Zr675       O679   2.408       .  S
Zr675       O682   2.413       .  S
Zr676       O702   2.435       .  S
Zr676       O703   2.436       .  S
Zr676       O678   2.438       .  S
Zr676       O679   2.390       .  S
Zr676       O680   2.360       .  S
O677        H714   0.990       .  S
O678        H709   0.990       .  S
O678        H723   0.990       .  S
O680        H706   0.964       .  S
O681       Zr691   2.364       .  S
O682       Zr691   2.370       .  S
O682        H707   0.965       .  S
C683       C2125   1.470       .  S
C684       C2077   1.520       .  S
C685       C1921   1.493       .  S
O686        H722   0.990       .  S
O687        C689   1.290       .  A
O688        C689   1.283       .  A
C689       C2020   1.467       .  S
O690       Zr691   2.435       .  S
O690        H719   0.990       .  S
Zr691       O694   2.436       .  S
Zr691       O695   2.439       .  S
Zr691       O696   2.481       .  S
O692        C697   1.282       .  A
O693        H710   0.990       .  S
O693        H725   0.990       .  S
O694        H711   0.990       .  S
O695        H715   0.990       .  S
O695        H724   0.989       .  S
O696        C697   1.294       .  A
C697       C1972   1.507       .  S
O698        H717   0.990       .  S
O698        H721   0.990       .  S
O699        H713   0.990       .  S
O699        H720   0.990       .  S
O700        C704   1.286       .  A
O701        C704   1.292       .  A
O702        H712   0.990       .  S
O703        H716   0.990       .  S
C704       C1936   1.490       .  S
Zr727       O728   2.439       .  S
Zr727       O729   2.429       .  S
Zr727       O730   2.392       .  S
Zr727       O733   2.382       .  S
Zr727       O735   2.364       .  S
Zr727       O736   2.383       .  S
Zr727       O737   2.395       .  S
Zr727       O738   2.403       .  S
O728        H784   0.991   1_554  S
O728        H792   0.990   1_554  S
O729        C749   1.281       .  A
O730        C751   1.274   1_554  A
O731       Zr741   2.477       .  S
O731        C750   1.292       .  A
O732       Zr740   2.499       .  S
O732        C751   1.296   1_554  A
O733        C750   1.276       .  A
O734       Zr742   2.406       .  S
O734        C749   1.279       .  A
O735       Zr740   2.377       .  S
O735       Zr742   2.379       .  S
O736       Zr741   2.397       .  S
O736       Zr742   2.366       .  S
O736        H771   0.966       .  S
O737       Zr740   2.389       .  S
O737       Zr757   2.402       .  S
O737        H774   0.966       .  S
O738       Zr741   2.398       .  S
O738       Zr757   2.407       .  S
Zr739       O764   2.440       .  S
Zr739       O758   2.446       .  S
Zr739       O766   2.450       .  S
Zr739       O754   2.426       .  S
Zr739       O745   2.404       .  S
Zr739       O746   2.407       .  S
Zr739       O747   2.390       .  S
Zr739       O748   2.378       .  S
Zr740       O759   2.435       .  S
Zr740       O752   2.435       .  S
Zr740       O753   2.431       .  S
Zr740       O746   2.418       .  S
Zr740       O747   2.412       .  S
Zr741       O743   2.440       .  S
Zr741       O765   2.442       .  S
Zr741       O767   2.468       .  S
Zr741       O745   2.403       .  S
Zr741       O748   2.405       .  S
Zr742       O768   2.439       .  S
Zr742       O769   2.434       .  S
Zr742       O744   2.440       .  S
Zr742       O745   2.399       .  S
Zr742       O746   2.370       .  S
O743        H780   0.989       .  S
O744        H775   0.990       .  S
O744        H789   0.990       .  S
O746        H772   0.964       .  S
O747       Zr757   2.373       .  S
O748       Zr757   2.372       .  S
O748        H773   0.966       .  S
C749       C1984   1.479       .  S
C750       C2044   1.471       .  S
C751       C1933   1.487       .  S
O752        H788   0.990       .  S
O753        C755   1.284       .  A
O754        C755   1.287       .  A
C755       C2092   1.489       .  S
O756       Zr757   2.435       .  S
O756        H785   0.990       .  S
Zr757       O760   2.436       .  S
Zr757       O761   2.437       .  S
Zr757       O762   2.451       .  S
O758        C763   1.285       .  A
O759        H776   0.990       .  S
O759        H791   0.990       .  S
O760        H777   0.990       .  S
O761        H781   0.990       .  S
O761        H790   0.990       .  S
O762        C763   1.288       .  A
C763       C2152   1.499       .  S
O764        H783   0.990       .  S
O764        H787   0.990       .  S
O765        H779   0.990       .  S
O765        H786   0.989       .  S
O766        C770   1.287       .  A
O767        C770   1.290       .  A
O768        H778   0.990       .  S
O769        H782   0.990       .  S
C770       C1924   1.495       .  S
Zr793       O794   2.426       .  S
Zr793       O795   2.433       .  S
Zr793       O796   2.467       .  S
Zr793       O799   2.433       .  S
Zr793       O801   2.382       .  S
Zr793       O802   2.383       .  S
Zr793       O803   2.399       .  S
Zr793       O804   2.408       .  S
O794        H850   0.990       .  S
O794        H858   0.989       .  S
O795        C815   1.285       .  A
O796        C817   1.294       .  A
O797       Zr807   2.399       .  S
O797        C816   1.278       .  A
O798       Zr806   2.385       .  S
O798        C817   1.273       .  A
O799        C816   1.285       .  A
O800       Zr808   2.533       .  S
O800        C815   1.300       .  A
O801       Zr806   2.421       .  S
O801       Zr808   2.370       .  S
O802       Zr807   2.393       .  S
O802       Zr808   2.352       .  S
O802        H837   0.965       .  S
O803       Zr806   2.408       .  S
O803       Zr823   2.350       .  S
O803        H840   0.963       .  S
O804       Zr807   2.408       .  S
O804       Zr823   2.373       .  S
Zr805       O830   2.438       .  S
Zr805       O824   2.499       .  S
Zr805       O832   2.392       .  S
Zr805       O820   2.417       .  S
Zr805       O811   2.430       .  S
Zr805       O812   2.415       .  S
Zr805       O813   2.357       .  S
Zr805       O814   2.378       .  S
Zr806       O825   2.437       .  S
Zr806       O818   2.436       .  S
Zr806       O819   2.478       .  S
Zr806       O812   2.370       .  S
Zr806       O813   2.368       .  S
Zr807       O809   2.434       .  S
Zr807       O831   2.433       .  S
Zr807       O833   2.447       .  S
Zr807       O811   2.384       .  S
Zr807       O814   2.376       .  S
Zr808       O834   2.433       .  S
Zr808       O835   2.437       .  S
Zr808       O810   2.444       .  S
Zr808       O811   2.443       .  S
Zr808       O812   2.446       .  S
O809        H846   0.990       .  S
O810        H841   0.989       .  S
O810        H855   0.990       .  S
O812        H838   0.966       .  S
O813       Zr823   2.398       .  S
O814       Zr823   2.363       .  S
O814        H839   0.965       .  S
C815       C2380   1.543       .  S
C816       C2008   1.457       .  S
C817       C1873   1.481   1_554  S
O818        H854   0.990       .  S
O819        C821   1.291       .  A
O820        C821   1.281       .  A
C821       C1897   1.501       .  S
O822       Zr823   2.441       .  S
O822        H851   0.990       .  S
Zr823       O826   2.440       .  S
Zr823       O827   2.445       .  S
Zr823       O828   2.370       .  S
O824        C829   1.296       .  A
O825        H842   0.990       .  S
O825        H857   0.990       .  S
O826        H843   0.990       .  S
O827        H847   0.990       .  S
O827        H856   0.989       .  S
O828        C829   1.272       .  A
C829       C1909   1.478       .  S
O830        H849   0.990       .  S
O830        H853   0.990       .  S
O831        H845   0.990       .  S
O831        H852   0.990       .  S
O832        C836   1.278       .  A
O833        C836   1.285       .  A
O834        H844   0.990       .  S
O835        H848   0.990       .  S
C836       C1888   1.471       .  S
Zr859       O860   2.444       .  S
Zr859       O861   2.436       .  S
Zr859       O862   2.447       .  S
Zr859       O865   2.399       .  S
Zr859       O867   2.381       .  S
Zr859       O868   2.384       .  S
Zr859       O869   2.417       .  S
Zr859       O870   2.406       .  S
O860        H916   0.990       .  S
O860        H924   0.990       .  S
O861        C881   1.283       .  A
O862        C883   1.284       .  A
O863       Zr873   2.430       .  S
O863        C882   1.282       .  A
O864       Zr872   2.399       .  S
O864        C883   1.278       .  A
O865        C882   1.279       .  A
O866       Zr874   2.511       .  S
O866        C881   1.297       .  A
O867       Zr872   2.424       .  S
O867       Zr874   2.379       .  S
O868       Zr873   2.386       .  S
O868       Zr874   2.366       .  S
O868        H903   0.965       .  S
O869       Zr872   2.401       .  S
O869       Zr889   2.364       .  S
O869        H906   0.964       .  S
O870       Zr873   2.400       .  S
O870       Zr889   2.371       .  S
Zr871       O896   2.439       .  S
Zr871       O890   2.495       .  S
Zr871       O898   2.376       .  S
Zr871       O886   2.431       .  S
Zr871       O877   2.428       .  S
Zr871       O878   2.411       .  S
Zr871       O879   2.359       .  S
Zr871       O880   2.382       .  S
Zr872       O891   2.438       .  S
Zr872       O884   2.434       .  S
Zr872       O885   2.467       .  S
Zr872       O878   2.372       .  S
Zr872       O879   2.379       .  S
Zr873       O875   2.435       .  S
Zr873       O897   2.436       .  S
Zr873       O899   2.445       .  S
Zr873       O877   2.389       .  S
Zr873       O880   2.390       .  S
Zr874       O900   2.436   1_554  S
Zr874       O901   2.436   1_554  S
Zr874       O876   2.439       .  S
Zr874       O877   2.429       .  S
Zr874       O878   2.439       .  S
O875        H912   0.990       .  S
O876        H907   0.990       .  S
O876        H921   0.990       .  S
O878        H904   0.966       .  S
O879       Zr889   2.386       .  S
O880       Zr889   2.374       .  S
O880        H905   0.966       .  S
C881       C2344   1.513       .  S
C882       C2116   1.458       .  S
C883       C1840   1.482       .  S
O884        H920   0.990       .  S
O885        C887   1.290       .  A
O886        C887   1.284       .  A
C887       C1900   1.498       .  S
O888       Zr889   2.438       .  S
O888        H917   0.990       .  S
Zr889       O892   2.435       .  S
Zr889       O893   2.436       .  S
Zr889       O894   2.391       .  S
O890        C895   1.295       .  A
O891        H908   0.990       .  S
O891        H923   0.990       .  S
O892        H909   0.990       .  S
O893        H913   0.990       .  S
O893        H922   0.990       .  S
O894        C895   1.277       .  A
C895       C1852   1.491       .  S
O896        H915   0.990       .  S
O896        H919   0.990       .  S
O897        H911   0.990   1_554  S
O897        H918   0.990       .  S
O898        C902   1.275       .  A
O899        C902   1.284       .  A
O900        H910   0.990       .  S
O901        H914   0.990       .  S
C902       C1861   1.461   1_554  S
Zr925       O926   2.436       .  S
Zr925       O927   2.418       .  S
Zr925       O928   2.399       .  S
Zr925       O931   2.429       .  S
Zr925       O933   2.378       .  S
Zr925       O934   2.386       .  S
Zr925       O935   2.413       .  S
Zr925       O936   2.393       .  S
O926        H982   0.990       .  S
O926        H990   0.991       .  S
O927        C947   1.280       .  A
O928        C949   1.278       .  A
O929       Zr939   2.407       .  S
O929        C948   1.272       .  A
O930       Zr938   2.421       .  S
O930        C949   1.285       .  A
O931        C948   1.275       .  A
O932       Zr940   2.567       .  S
O932        C947   1.309       .  A
O933       Zr938   2.415       .  S
O933       Zr940   2.348       .  S
O934       Zr939   2.424       .  S
O934       Zr940   2.359       .  S
O934        H969   0.966       .  S
O935       Zr938   2.413       .  S
O935       Zr955   2.354       .  S
O935        H972   0.965       .  S
O936       Zr939   2.411       .  S
O936       Zr955   2.372       .  S
Zr937       O962   2.442       .  S
Zr937       O956   2.523       .  S
Zr937       O964   2.386       .  S
Zr937       O952   2.394       .  S
Zr937       O943   2.434       .  S
Zr937       O944   2.434       .  S
Zr937       O945   2.368       .  S
Zr937       O946   2.363       .  S
Zr938       O957   2.437       .  S
Zr938       O950   2.433       .  S
Zr938       O951   2.494       .  S
Zr938       O944   2.382       .  S
Zr938       O945   2.388       .  S
Zr939       O941   2.438       .  S
Zr939       O963   2.435       .  S
Zr939       O965   2.463       .  S
Zr939       O943   2.384       .  S
Zr939       O946   2.388       .  S
Zr940       O966   2.435       .  S
Zr940       O967   2.437       .  S
Zr940       O942   2.439       .  S
Zr940       O943   2.467       .  S
Zr940       O944   2.445       .  S
O941        H978   0.991       .  S
O942        H973   0.990       .  S
O942        H987   0.990       .  S
O944        H970   0.966       .  S
O945       Zr955   2.381       .  S
O946       Zr955   2.381       .  S
O946        H971   0.965       .  S
C947       C2245   1.544       .  S
C948       C2068   1.464       .  S
C949       C1789   1.447       .  S
O950        H986   0.990   1_655  S
O951        C953   1.294       .  A
O952        C953   1.275       .  A
C953       C1816   1.488       .  S
O954       Zr955   2.436       .  S
O954        H983   0.989       .  S
Zr955       O958   2.435       .  S
Zr955       O959   2.438       .  S
Zr955       O960   2.374       .  S
O956        C961   1.301       .  A
O957        H974   0.990       .  S
O957        H989   0.990       .  S
O958        H975   0.990       .  S
O959        H979   0.990       .  S
O959        H988   0.990       .  S
O960        C961   1.271       .  A
C961       C1825   1.503       .  S
O962        H981   0.990       .  S
O962        H985   0.990       .  S
O963        H977   0.990       .  S
O963        H984   0.990       .  S
O964        C968   1.272       .  A
O965        C968   1.288       .  A
O966        H976   0.990       .  S
O967        H980   0.990       .  S
C968       C1801   1.492       .  S
Zr991       O992   2.436       .  S
Zr991       O993   2.432       .  S
Zr991       O994   2.400       .  S
Zr991       O997   2.431       .  S
Zr991       O999   2.377       .  S
Zr991      O1000   2.379       .  S
Zr991      O1001   2.410       .  S
Zr991      O1002   2.387       .  S
O992       H1048   0.990       .  S
O992       H1056   0.988       .  S
O993       C1013   1.282       .  A
O994       C1015   1.280       .  A
O995      Zr1005   2.421       .  S
O995       C1014   1.278       .  A
O996      Zr1004   2.422       .  S
O996       C1015   1.284       .  A
O997       C1014   1.279       .  A
O998      Zr1006   2.533       .  S
O998       C1013   1.302       .  A
O999      Zr1004   2.412       .  S
O999      Zr1006   2.360       .  S
O1000     Zr1005   2.414       .  S
O1000     Zr1006   2.369       .  S
O1000      H1035   0.966       .  S
O1001     Zr1004   2.410       .  S
O1001     Zr1021   2.370       .  S
O1001      H1038   0.965       .  S
O1002     Zr1005   2.402       .  S
O1002     Zr1021   2.369       .  S
Zr1003     O1028   2.439       .  S
Zr1003     O1022   2.491       .  S
Zr1003     O1030   2.412       .  S
Zr1003     O1018   2.417       .  S
Zr1003     O1009   2.427       .  S
Zr1003     O1010   2.424       .  S
Zr1003     O1011   2.371       .  S
Zr1003     O1012   2.374       .  S
Zr1004     O1023   2.438       .  S
Zr1004     O1016   2.434       .  S
Zr1004     O1017   2.479       .  S
Zr1004     O1010   2.389       .  S
Zr1004     O1011   2.371       .  S
Zr1005     O1007   2.440       .  S
Zr1005     O1029   2.439       .  S
Zr1005     O1031   2.461       .  S
Zr1005     O1009   2.393       .  S
Zr1005     O1012   2.386       .  S
Zr1006     O1032   2.435       .  S
Zr1006     O1033   2.437       .  S
Zr1006     O1008   2.439       .  S
Zr1006     O1009   2.452       .  S
Zr1006     O1010   2.434       .  S
O1007      H1044   0.990       .  S
O1008      H1039   0.990       .  S
O1008      H1053   0.990       .  S
O1010      H1036   0.966       .  S
O1011     Zr1021   2.377       .  S
O1012     Zr1021   2.373       .  S
O1012      H1037   0.962       .  S
C1013      C2188   1.529       .  S
C1014      C1960   1.457       .  S
C1015      C1753   1.460       .  S
O1016      H1052   0.990   1_655  S
O1017      C1019   1.293       .  A
O1018      C1019   1.282       .  A
C1019      C1813   1.494       .  S
O1020     Zr1021   2.431       .  S
O1020      H1049   0.989       .  S
Zr1021     O1024   2.434       .  S
Zr1021     O1025   2.440       .  S
Zr1021     O1026   2.387       .  S
O1022      C1027   1.291       .  A
O1023      H1040   0.990       .  S
O1023      H1055   0.990       .  S
O1024      H1041   0.991       .  S
O1025      H1045   0.990       .  S
O1025      H1054   0.990       .  S
O1026      C1027   1.267       .  A
C1027      C1765   1.494       .  S
O1028      H1047   0.990       .  S
O1028      H1051   0.990       .  S
O1029      H1043   0.990       .  S
O1029      H1050   0.990       .  S
O1030      C1034   1.281       .  A
O1031      C1034   1.287       .  A
O1032      H1042   0.990       .  S
O1033      H1046   0.990       .  S
C1034      C1777   1.479       .  S
Zr1057     O1058   2.440   1_556  S
Zr1057     O1059   2.428   1_556  S
Zr1057     O1060   2.438   1_556  S
Zr1057     O1063   2.448       .  S
Zr1057     O1065   2.380       .  S
Zr1057     O1066   2.395       .  S
Zr1057     O1067   2.411       .  S
Zr1057     O1068   2.382       .  S
O1058      H1114   0.990       .  S
O1058      H1122   0.990       .  S
O1059      C1079   1.282       .  A
O1060      C1081   1.286       .  A
O1061     Zr1071   2.422       .  S
O1061      C1080   1.283       .  A
O1062     Zr1070   2.457   1_554  S
O1062      C1081   1.290       .  A
O1063      C1080   1.290       .  A
O1064     Zr1072   2.475   1_554  S
O1064      C1079   1.291       .  A
O1065     Zr1070   2.411       .  S
O1065     Zr1072   2.366       .  S
O1066     Zr1071   2.395       .  S
O1066     Zr1072   2.378       .  S
O1066      H1101   0.964       .  S
O1067     Zr1070   2.413       .  S
O1067     Zr1087   2.395       .  S
O1067      H1104   0.966       .  S
O1068     Zr1071   2.392       .  S
O1068     Zr1087   2.347       .  S
Zr1069     O1094   2.439       .  S
Zr1069     O1088   2.438       .  S
Zr1069     O1096   2.390       .  S
Zr1069     O1084   2.376       .  S
Zr1069     O1075   2.396       .  S
Zr1069     O1076   2.401       .  S
Zr1069     O1077   2.375       .  S
Zr1069     O1078   2.372       .  S
Zr1070     O1089   2.435       .  S
Zr1070     O1082   2.437       .  S
Zr1070     O1083   2.521       .  S
Zr1070     O1076   2.393       .  S
Zr1070     O1077   2.368       .  S
Zr1071     O1073   2.435       .  S
Zr1071     O1095   2.436       .  S
Zr1071     O1097   2.467       .  S
Zr1071     O1075   2.380       .  S
Zr1071     O1078   2.376       .  S
Zr1072     O1098   2.436       .  S
Zr1072     O1099   2.435       .  S
Zr1072     O1074   2.437       .  S
Zr1072     O1075   2.413       .  S
Zr1072     O1076   2.428       .  S
O1073      H1110   0.991       .  S
O1074      H1105   0.990       .  S
O1074      H1119   0.990   1_556  S
O1076      H1102   0.966       .  S
O1077     Zr1087   2.372       .  S
O1078     Zr1087   2.387       .  S
O1078      H1103   0.965       .  S
C1079      C1912   1.485       .  S
C1080      C1864   1.474       .  S
C1081      C1729   1.482       .  S
O1082      H1118   0.990       .  S
O1083      C1085   1.301       .  A
O1084      C1085   1.270       .  A
C1085      C1768   1.515       .  S
O1086     Zr1087   2.438       .  S
O1086      H1115   0.990       .  S
Zr1087     O1090   2.439       .  S
Zr1087     O1091   2.439       .  S
Zr1087     O1092   2.385       .  S
O1088      C1093   1.285       .  A
O1089      H1106   0.990       .  S
O1089      H1121   0.990       .  S
O1090      H1107   0.990       .  S
O1091      H1111   0.990       .  S
O1091      H1120   0.990       .  S
O1092      C1093   1.276       .  A
C1093      C1804   1.463       .  S
O1094      H1113   0.990       .  S
O1094      H1117   0.990       .  S
O1095      H1109   0.990       .  S
O1095      H1116   0.990       .  S
O1096      C1100   1.276       .  A
O1097      C1100   1.288       .  A
O1098      H1108   0.990       .  S
O1099      H1112   0.990       .  S
C1100      C1741   1.473       .  S
Zr1123     O1124   2.443       .  S
Zr1123     O1125   2.454       .  S
Zr1123     O1126   2.431       .  S
Zr1123     O1129   2.457       .  S
Zr1123     O1131   2.389       .  S
Zr1123     O1132   2.388       .  S
Zr1123     O1133   2.417       .  S
Zr1123     O1134   2.395       .  S
O1124      H1180   0.990       .  S
O1124      H1188   0.991       .  S
O1125      C1145   1.286       .  A
O1126      C1147   1.284       .  A
O1127     Zr1137   2.405       .  S
O1127      C1146   1.279       .  A
O1128     Zr1136   2.460       .  S
O1128      C1147   1.290       .  A
O1129      C1146   1.288       .  A
O1130     Zr1138   2.454       .  S
O1130      C1145   1.288       .  A
O1131     Zr1136   2.415       .  S
O1131     Zr1138   2.372       .  S
O1132     Zr1137   2.402       .  S
O1132     Zr1138   2.383       .  S
O1132      H1167   0.966       .  S
O1133     Zr1136   2.416       .  S
O1133     Zr1153   2.392       .  S
O1133      H1170   0.966       .  S
O1134     Zr1137   2.398       .  S
O1134     Zr1153   2.371       .  S
Zr1135     O1160   2.441       .  S
Zr1135     O1154   2.458       .  S
Zr1135     O1162   2.416       .  S
Zr1135     O1150   2.383       .  S
Zr1135     O1141   2.397       .  S
Zr1135     O1142   2.410       .  S
Zr1135     O1143   2.376       .  S
Zr1135     O1144   2.373       .  S
Zr1136     O1155   2.436       .  S
Zr1136     O1148   2.434       .  S
Zr1136     O1149   2.528       .  S
Zr1136     O1142   2.388       .  S
Zr1136     O1143   2.373       .  S
Zr1137     O1139   2.438       .  S
Zr1137     O1161   2.437       .  S
Zr1137     O1163   2.451       .  S
Zr1137     O1141   2.378       .  S
Zr1137     O1144   2.383       .  S
Zr1138     O1164   2.436       .  S
Zr1138     O1165   2.436       .  S
Zr1138     O1140   2.438       .  S
Zr1138     O1141   2.412       .  S
Zr1138     O1142   2.413       .  S
O1139      H1176   0.990       .  S
O1140      H1171   0.990       .  S
O1140      H1185   0.990       .  S
O1142      H1168   0.966       .  S
O1143     Zr1153   2.373       .  S
O1144     Zr1153   2.380       .  S
O1144      H1169   0.966       .  S
C1145      C1849   1.500       .  S
C1146      C1885   1.470       .  S
C1147      C1732   1.487       .  S
O1148      H1184   0.990       .  S
O1149      C1151   1.304       .  A
O1150      C1151   1.274       .  A
C1151      C1828   1.515       .  S
O1152     Zr1153   2.437       .  S
O1152      H1181   0.990       .  S
Zr1153     O1156   2.436       .  S
Zr1153     O1157   2.440       .  S
Zr1153     O1158   2.396       .  S
O1154      C1159   1.289       .  A
O1155      H1172   0.989       .  S
O1155      H1187   0.990       .  S
O1156      H1173   0.990       .  S
O1157      H1177   0.990       .  S
O1157      H1186   0.990       .  S
O1158      C1159   1.277       .  A
C1159      C1780   1.467       .  S
O1160      H1179   0.990       .  S
O1160      H1183   0.991       .  S
O1161      H1175   0.990       .  S
O1161      H1182   0.990       .  S
O1162      C1166   1.281       .  A
O1163      C1166   1.285       .  A
O1164      H1174   0.990       .  S
O1165      H1178   0.990       .  S
C1166      C1744   1.473       .  S
Zr1189     O1190   2.430       .  S
Zr1189     O1191   2.412       .  S
Zr1189     O1192   2.434       .  S
Zr1189     O1195   2.372       .  S
Zr1189     O1197   2.374       .  S
Zr1189     O1198   2.390       .  S
Zr1189     O1199   2.390       .  S
Zr1189     O1200   2.411       .  S
O1190      H1246   0.989       .  S
O1190      H1254   0.987       .  S
O1191      C1211   1.279       .  A
O1192      C1213   1.277       .  A
O1193     Zr1203   2.404       .  S
O1193      C1212   1.282       .  A
O1194     Zr1202   2.416       .  S
O1194      C1213   1.275       .  A
O1195      C1212   1.274       .  A
O1196     Zr1204   2.561       .  S
O1196      C1211   1.308       .  A
O1197     Zr1202   2.414       .  S
O1197     Zr1204   2.362       .  S
O1198     Zr1203   2.418       .  S
O1198     Zr1204   2.352       .  S
O1198      H1233   0.966       .  S
O1199     Zr1202   2.427       .  S
O1199     Zr1219   2.360       .  S
O1199      H1236   0.961       .  S
O1200     Zr1203   2.408       .  S
O1200     Zr1219   2.374       .  S
Zr1201     O1226   2.439       .  S
Zr1201     O1220   2.510       .  S
Zr1201     O1228   2.414       .  S
Zr1201     O1216   2.382       .  S
Zr1201     O1207   2.429       .  S
Zr1201     O1208   2.431       .  S
Zr1201     O1209   2.371       .  S
Zr1201     O1210   2.361       .  S
Zr1202     O1221   2.437       .  S
Zr1202     O1214   2.434       .  S
Zr1202     O1215   2.461       .  S
Zr1202     O1208   2.392       .  S
Zr1202     O1209   2.396       .  S
Zr1203     O1205   2.436   1_545  S
Zr1203     O1227   2.435   1_545  S
Zr1203     O1229   2.512       .  S
Zr1203     O1207   2.376       .  S
Zr1203     O1210   2.376       .  S
Zr1204     O1230   2.435   1_545  S
Zr1204     O1231   2.434       .  S
Zr1204     O1206   2.436       .  S
Zr1204     O1207   2.456       .  S
Zr1204     O1208   2.445       .  S
O1205      H1242   0.990   1_565  S
O1206      H1237   0.990       .  S
O1206      H1251   0.989       .  S
O1208      H1234   0.966       .  S
O1209     Zr1219   2.395       .  S
O1210     Zr1219   2.360       .  S
O1210      H1235   0.964       .  S
C1211      C2104   1.532       .  S
C1212      C2329   1.433   1_545  S
C1213      C1837   1.473       .  S
O1214      H1250   0.990       .  S
O1215      C1217   1.287       .  A
O1216      C1217   1.275       .  A
C1217      C1693   1.464       .  S
O1218     Zr1219   2.436       .  S
O1218      H1247   0.990       .  S
Zr1219     O1222   2.434       .  S
Zr1219     O1223   2.441       .  S
Zr1219     O1224   2.382       .  S
O1220      C1225   1.299       .  A
O1221      H1238   0.990       .  S
O1221      H1253   0.990       .  S
O1222      H1239   0.990       .  S
O1223      H1243   0.990       .  S
O1223      H1252   0.990       .  S
O1224      C1225   1.273       .  A
C1225      C1720   1.489       .  S
O1226      H1245   0.990       .  S
O1226      H1249   0.990       .  S
O1227      H1241   0.990       .  S
O1227      H1248   0.990       .  S
O1228      C1232   1.282       .  A
O1229      C1232   1.297       .  A
O1230      H1240   0.990       .  S
O1231      H1244   0.990       .  S
C1232      C1705   1.513       .  S
Zr1255     O1256   2.433       .  S
Zr1255     O1257   2.418       .  S
Zr1255     O1258   2.386       .  S
Zr1255     O1261   2.406   1_545  S
Zr1255     O1263   2.378       .  S
Zr1255     O1264   2.386       .  S
Zr1255     O1265   2.403       .  S
Zr1255     O1266   2.408       .  S
O1256      H1312   0.987   1_545  S
O1256      H1320   0.989   1_545  S
O1257      C1277   1.279       .  A
O1258      C1279   1.277       .  A
O1259     Zr1269   2.439   1_565  S
O1259      C1278   1.283       .  A
O1260     Zr1268   2.421       .  S
O1260      C1279   1.284       .  A
O1261      C1278   1.269       .  A
O1262     Zr1270   2.542       .  S
O1262      C1277   1.304       .  A
O1263     Zr1268   2.384       .  S
O1263     Zr1270   2.349       .  S
O1264     Zr1269   2.425       .  S
O1264     Zr1270   2.368       .  S
O1264      H1299   0.966   1_545  S
O1265     Zr1268   2.404       .  S
O1265     Zr1285   2.378       .  S
O1265      H1302   0.965       .  S
O1266     Zr1269   2.415       .  S
O1266     Zr1285   2.394       .  S
Zr1267     O1292   2.436       .  S
Zr1267     O1286   2.489       .  S
Zr1267     O1294   2.435       .  S
Zr1267     O1282   2.378       .  S
Zr1267     O1273   2.416       .  S
Zr1267     O1274   2.429       .  S
Zr1267     O1275   2.370       .  S
Zr1267     O1276   2.371       .  S
Zr1268     O1287   2.438       .  S
Zr1268     O1280   2.435       .  S
Zr1268     O1281   2.460       .  S
Zr1268     O1274   2.386       .  S
Zr1268     O1275   2.375       .  S
Zr1269     O1271   2.437   1_545  S
Zr1269     O1293   2.437   1_545  S
Zr1269     O1295   2.497       .  S
Zr1269     O1273   2.393       .  S
Zr1269     O1276   2.404       .  S
Zr1270     O1296   2.436       .  S
Zr1270     O1297   2.436       .  S
Zr1270     O1272   2.441       .  S
Zr1270     O1273   2.454       .  S
Zr1270     O1274   2.426       .  S
O1271      H1308   0.990       .  S
O1272      H1303   0.990       .  S
O1272      H1317   0.989       .  S
O1274      H1300   0.966       .  S
O1275     Zr1285   2.361       .  S
O1276     Zr1285   2.373       .  S
O1276      H1301   0.963       .  S
C1277      C2056   1.521       .  S
C1278      C2260   1.467       .  S
C1279      C1792   1.453       .  S
O1280      H1316   0.990       .  S
O1281      C1283   1.287       .  A
O1282      C1283   1.277       .  A
C1283      C1681   1.465       .  S
O1284     Zr1285   2.432       .  S
O1284      H1313   0.989       .  S
Zr1285     O1288   2.437       .  S
Zr1285     O1289   2.440       .  S
Zr1285     O1290   2.428       .  S
O1286      C1291   1.294       .  A
O1287      H1304   0.990       .  S
O1287      H1319   0.990       .  S
O1288      H1305   0.990       .  S
O1289      H1309   0.990       .  S
O1289      H1318   0.990       .  S
O1290      C1291   1.283       .  A
C1291      C1672   1.499       .  S
O1292      H1311   0.990       .  S
O1292      H1315   0.990       .  S
O1293      H1307   0.990       .  S
O1293      H1314   0.990       .  S
O1294      C1298   1.284       .  A
O1295      C1298   1.295       .  A
O1296      H1306   0.990       .  S
O1297      H1310   0.990       .  S
C1298      C1708   1.519       .  S
Zr1321     O1322   2.437   1_556  S
Zr1321     O1323   2.379       .  S
Zr1321     O1324   2.427       .  S
Zr1321     O1327   2.422   1_556  S
Zr1321     O1329   2.364       .  S
Zr1321     O1330   2.401       .  S
Zr1321     O1331   2.396       .  S
Zr1321     O1332   2.412   1_556  S
O1322      H1378   0.990       .  S
O1322      H1386   0.990       .  S
O1323      C1343   1.277       .  A
O1324      C1345   1.289       .  A
O1325     Zr1335   2.426   1_554  S
O1325      C1344   1.272       .  A
O1326     Zr1334   2.418       .  S
O1326      C1345   1.282       .  A
O1327      C1344   1.272       .  A
O1328     Zr1336   2.555       .  S
O1328      C1343   1.306       .  A
O1329     Zr1334   2.388       .  S
O1329     Zr1336   2.336       .  S
O1330     Zr1335   2.412       .  S
O1330     Zr1336   2.348       .  S
O1330      H1365   0.957       .  S
O1331     Zr1334   2.409       .  S
O1331     Zr1351   2.394   1_556  S
O1331      H1368   0.966       .  S
O1332     Zr1335   2.413   1_554  S
O1332     Zr1351   2.365       .  S
Zr1333     O1358   2.445       .  S
Zr1333     O1352   2.485       .  S
Zr1333     O1360   2.412       .  S
Zr1333     O1348   2.395       .  S
Zr1333     O1339   2.408       .  S
Zr1333     O1340   2.426       .  S
Zr1333     O1341   2.376       .  S
Zr1333     O1342   2.373       .  S
Zr1334     O1353   2.440       .  S
Zr1334     O1346   2.435       .  S
Zr1334     O1347   2.451       .  S
Zr1334     O1340   2.393       .  S
Zr1334     O1341   2.375       .  S
Zr1335     O1337   2.434   1_556  S
Zr1335     O1359   2.423       .  S
Zr1335     O1361   2.490       .  S
Zr1335     O1339   2.382       .  S
Zr1335     O1342   2.368       .  S
Zr1336     O1362   2.438       .  S
Zr1336     O1363   2.442       .  S
Zr1336     O1338   2.438       .  S
Zr1336     O1339   2.448       .  S
Zr1336     O1340   2.437       .  S
O1337      H1374   0.990       .  S
O1338      H1369   0.990       .  S
O1338      H1383   0.990       .  S
O1340      H1366   0.966       .  S
O1341     Zr1351   2.371   1_556  S
O1342     Zr1351   2.398   1_556  S
O1342      H1367   0.966   1_556  S
C1343      C1996   1.535       .  S
C1344      C2401   1.457       .  S
C1345      C1876   1.469       .  S
O1346      H1382   0.990       .  S
O1347      C1349   1.287       .  A
O1348      C1349   1.270       .  A
C1349      C1636   1.483       .  S
O1350     Zr1351   2.439       .  S
O1350      H1379   0.990       .  S
Zr1351     O1354   2.437       .  S
Zr1351     O1355   2.439       .  S
Zr1351     O1356   2.387       .  S
O1352      C1357   1.294       .  A
O1353      H1370   0.990       .  S
O1353      H1385   0.990       .  S
O1354      H1371   0.990       .  S
O1355      H1375   0.990       .  S
O1355      H1384   0.990       .  S
O1356      C1357   1.275   1_554  A
C1357      C1660   1.476       .  S
O1358      H1377   0.991       .  S
O1358      H1381   0.990       .  S
O1359      H1373   0.989       .  S
O1359      H1380   0.990       .  S
O1360      C1364   1.278       .  A
O1361      C1364   1.293       .  A
O1362      H1372   0.990       .  S
O1363      H1376   0.990       .  S
C1364      C1648   1.492       .  S
Zr1387     O1388   2.440       .  S
Zr1387     O1389   2.446       .  S
Zr1387     O1390   2.407       .  S
Zr1387     O1393   2.454       .  S
Zr1387     O1395   2.377       .  S
Zr1387     O1396   2.389       .  S
Zr1387     O1397   2.426       .  S
Zr1387     O1398   2.357       .  S
O1388      H1444   0.990       .  S
O1388      H1452   0.989       .  S
O1389      C1409   1.282   1_556  A
O1390      C1411   1.282       .  A
O1391     Zr1401   2.460       .  S
O1391      C1410   1.288       .  A
O1392     Zr1400   2.412       .  S
O1392      C1411   1.280       .  A
O1393      C1410   1.291       .  A
O1394     Zr1402   2.518       .  S
O1394      C1409   1.296       .  A
O1395     Zr1400   2.400       .  S
O1395     Zr1402   2.353   1_556  S
O1396     Zr1401   2.427       .  S
O1396     Zr1402   2.384   1_556  S
O1396      H1431   0.966       .  S
O1397     Zr1400   2.416       .  S
O1397     Zr1417   2.403       .  S
O1397      H1434   0.965       .  S
O1398     Zr1401   2.365       .  S
O1398     Zr1417   2.339       .  S
Zr1399     O1424   2.442   1_556  S
Zr1399     O1418   2.507       .  S
Zr1399     O1426   2.425       .  S
Zr1399     O1414   2.397   1_556  S
Zr1399     O1405   2.430       .  S
Zr1399     O1406   2.427   1_556  S
Zr1399     O1407   2.368       .  S
Zr1399     O1408   2.372       .  S
Zr1400     O1419   2.436       .  S
Zr1400     O1412   2.435   1_556  S
Zr1400     O1413   2.461       .  S
Zr1400     O1406   2.391   1_556  S
Zr1400     O1407   2.391       .  S
Zr1401     O1403   2.438       .  S
Zr1401     O1425   2.438       .  S
Zr1401     O1427   2.477       .  S
Zr1401     O1405   2.385       .  S
Zr1401     O1408   2.411       .  S
Zr1402     O1428   2.436       .  S
Zr1402     O1429   2.434       .  S
Zr1402     O1404   2.440       .  S
Zr1402     O1405   2.446   1_554  S
Zr1402     O1406   2.420       .  S
O1403      H1440   0.990       .  S
O1404      H1435   0.990       .  S
O1404      H1449   0.989       .  S
O1406      H1432   0.964       .  S
O1407     Zr1417   2.381       .  S
O1408     Zr1417   2.391       .  S
O1408      H1433   0.966       .  S
C1409      C1948   1.527       .  S
C1410      C2209   1.471       .  S
C1411      C1756   1.478       .  S
O1412      H1448   0.990       .  S
O1413      C1415   1.288   1_556  A
O1414      C1415   1.276       .  A
C1415      C1624   1.469       .  S
O1416     Zr1417   2.435       .  S
O1416      H1445   0.990       .  S
Zr1417     O1420   2.434       .  S
Zr1417     O1421   2.439       .  S
Zr1417     O1422   2.387       .  S
O1418      C1423   1.295       .  A
O1419      H1436   0.990       .  S
O1419      H1451   0.990       .  S
O1420      H1437   0.990       .  S
O1421      H1441   0.990       .  S
O1421      H1450   0.990       .  S
O1422      C1423   1.273       .  A
C1423      C1609   1.516       .  S
O1424      H1443   0.991       .  S
O1424      H1447   0.991       .  S
O1425      H1439   0.990   1_556  S
O1425      H1446   0.990       .  S
O1426      C1430   1.283       .  A
O1427      C1430   1.291       .  A
O1428      H1438   0.990       .  S
O1429      H1442   0.990       .  S
C1430      C1645   1.503       .  S
Zr1453     O1454   2.440       .  S
Zr1453     O1455   2.455       .  S
Zr1453     O1456   2.409       .  S
Zr1453     O1459   2.395       .  S
Zr1453     O1461   2.360       .  S
Zr1453     O1462   2.379       .  S
Zr1453     O1463   2.403       .  S
Zr1453     O1464   2.413       .  S
O1454      H1510   0.990       .  S
O1454      H1518   0.990       .  S
O1455      C1475   1.289       .  A
O1456      C1477   1.279       .  A
O1457     Zr1467   2.519       .  S
O1457      C1476   1.302       .  A
O1458     Zr1466   2.517       .  S
O1458      C1477   1.299       .  A
O1459      C1476   1.278       .  A
O1460     Zr1468   2.375       .  S
O1460      C1475   1.273       .  A
O1461     Zr1466   2.374       .  S
O1461     Zr1468   2.387       .  S
O1462     Zr1467   2.387       .  S
O1462     Zr1468   2.373       .  S
O1462      H1497   0.966       .  S
O1463     Zr1466   2.386       .  S
O1463     Zr1483   2.415       .  S
O1463      H1500   0.966       .  S
O1464     Zr1467   2.392       .  S
O1464     Zr1483   2.426       .  S
Zr1465     O1490   2.440       .  S
Zr1465     O1484   2.420       .  S
Zr1465     O1492   2.449       .  S
Zr1465     O1480   2.451       .  S
Zr1465     O1471   2.408       .  S
Zr1465     O1472   2.397       .  S
Zr1465     O1473   2.391       .  S
Zr1465     O1474   2.391       .  S
Zr1466     O1485   2.435       .  S
Zr1466     O1478   2.435       .  S
Zr1466     O1479   2.436       .  S
Zr1466     O1472   2.421       .  S
Zr1466     O1473   2.417       .  S
Zr1467     O1469   2.436       .  S
Zr1467     O1491   2.436       .  S
Zr1467     O1493   2.475       .  S
Zr1467     O1471   2.417       .  S
Zr1467     O1474   2.418       .  S
Zr1468     O1494   2.437       .  S
Zr1468     O1495   2.437       .  S
Zr1468     O1470   2.444       .  S
Zr1468     O1471   2.386       .  S
Zr1468     O1472   2.361       .  S
O1469      H1506   0.990       .  S
O1470      H1501   0.990       .  S
O1470      H1515   0.990       .  S
O1472      H1498   0.963       .  S
O1473     Zr1483   2.370       .  S
O1474     Zr1483   2.369       .  S
O1474      H1499   0.966       .  S
C1475      C1633   1.463       .  S
C1476      C1612   1.511       .  S
C1477      C1600   1.507       .  S
O1478      H1514   0.990       .  S
O1479      C1481   1.287       .  A
O1480      C1481   1.290       .  A
C1481      C1696   1.485       .  S
O1482     Zr1483   2.436       .  S
O1482      H1511   0.990       .  S
Zr1483     O1486   2.436       .  S
Zr1483     O1487   2.441       .  S
Zr1483     O1488   2.487       .  S
O1484      C1489   1.280       .  A
O1485      H1502   0.990       .  S
O1485      H1517   0.990       .  S
O1486      H1503   0.990       .  S
O1487      H1507   0.990       .  S
O1487      H1516   0.989       .  S
O1488      C1489   1.294       .  A
C1489      C1669   1.504       .  S
O1490      H1509   0.991       .  S
O1490      H1513   0.990       .  S
O1491      H1505   0.990       .  S
O1491      H1512   0.990       .  S
O1492      C1496   1.287       .  A
O1493      C1496   1.292       .  A
O1494      H1504   0.990       .  S
O1495      H1508   0.990       .  S
C1496      C1588   1.495       .  S
Zr1519     O1520   2.440       .  S
Zr1519     O1521   2.435       .  S
Zr1519     O1522   2.404       .  S
Zr1519     O1525   2.409       .  S
Zr1519     O1527   2.367       .  S
Zr1519     O1528   2.386       .  S
Zr1519     O1529   2.400       .  S
Zr1519     O1530   2.402       .  S
O1520      H1576   0.991       .  S
O1520      H1584   0.990       .  S
O1521      C1541   1.283       .  A
O1522      C1543   1.277       .  A
O1523     Zr1533   2.500       .  S
O1523      C1542   1.299       .  A
O1524     Zr1532   2.507       .  S
O1524      C1543   1.298       .  A
O1525      C1542   1.281       .  A
O1526     Zr1534   2.417       .  S
O1526      C1541   1.282       .  A
O1527     Zr1532   2.371       .  S
O1527     Zr1534   2.372       .  S
O1528     Zr1533   2.400       .  S
O1528     Zr1534   2.370       .  S
O1528      H1563   0.966       .  S
O1529     Zr1532   2.392       .  S
O1529     Zr1549   2.398       .  S
O1529      H1566   0.966       .  S
O1530     Zr1533   2.403       .  S
O1530     Zr1549   2.407       .  S
Zr1531     O1556   2.440       .  S
Zr1531     O1550   2.427       .  S
Zr1531     O1558   2.443       .  S
Zr1531     O1546   2.441       .  S
Zr1531     O1537   2.404       .  S
Zr1531     O1538   2.407       .  S
Zr1531     O1539   2.389       .  S
Zr1531     O1540   2.383       .  S
Zr1532     O1551   2.436       .  S
Zr1532     O1544   2.435       .  S
Zr1532     O1545   2.448       .  S
Zr1532     O1538   2.420       .  S
Zr1532     O1539   2.406       .  S
Zr1533     O1535   2.435       .  S
Zr1533     O1557   2.435       .  S
Zr1533     O1559   2.506       .  S
Zr1533     O1537   2.404       .  S
Zr1533     O1540   2.407       .  S
Zr1534     O1560   2.440       .  S
Zr1534     O1561   2.435       .  S
Zr1534     O1536   2.437       .  S
Zr1534     O1537   2.397       .  S
Zr1534     O1538   2.384       .  S
O1535      H1572   0.990       .  S
O1536      H1567   0.990       .  S
O1536      H1581   0.990       .  S
O1538      H1564   0.965       .  S
O1539     Zr1549   2.373       .  S
O1540     Zr1549   2.377       .  S
O1540      H1565   0.966       .  S
C1541      C1684   1.490       .  S
C1542      C1717   1.496       .  S
C1543      C1585   1.496       .  S
O1544      H1580   0.990       .  S
O1545      C1547   1.290       .  A
O1546      C1547   1.287       .  A
C1547      C1621   1.491       .  S
O1548     Zr1549   2.435       .  S
O1548      H1577   0.990       .  S
Zr1549     O1552   2.437       .  S
Zr1549     O1553   2.435       .  S
Zr1549     O1554   2.447       .  S
O1550      C1555   1.281       .  A
O1551      H1568   0.990       .  S
O1551      H1583   0.990       .  S
O1552      H1569   0.990       .  S
O1553      H1573   0.990       .  S
O1553      H1582   0.990       .  S
O1554      C1555   1.286       .  A
C1555      C1657   1.479       .  S
O1556      H1575   0.991       .  S
O1556      H1579   0.990       .  S
O1557      H1571   0.990       .  S
O1557      H1578   0.990       .  S
O1558      C1562   1.285       .  A
O1559      C1562   1.298       .  A
O1560      H1570   0.990       .  S
O1561      H1574   0.990       .  S
C1562      C1597   1.513   1_554  S
C1585      C1586   1.409       .  A
C1585      C1590   1.417       .  A
C1586      C1587   1.412       .  A
C1586      H1595   1.083       .  S
C1587      C1588   1.412       .  A
C1587      S1591   1.807       .  S
C1588      C1589   1.405       .  A
C1589      C1590   1.412       .  A
C1589      H1596   1.084       .  S
C1590      S1592   1.800       .  S
S1591      H1594   1.407       .  S
S1592      H1593   1.404       .  S
C1597      C1598   1.407       .  A
C1597      C1602   1.420       .  A
C1598      C1599   1.412       .  A
C1598      H1607   1.083       .  S
C1599      C1600   1.416       .  A
C1599      S1603   1.806       .  S
C1600      C1601   1.409       .  A
C1601      C1602   1.420       .  A
C1601      H1608   1.083       .  S
C1602      S1604   1.797       .  S
S1603      H1606   1.403       .  S
S1604      H1605   1.405   1_556  S
C1609      C1610   1.418       .  A
C1609      C1614   1.417       .  A
C1610      C1611   1.410       .  A
C1610      H1619   1.082       .  S
C1611      C1612   1.410       .  A
C1611      S1615   1.804       .  S
C1612      C1613   1.417       .  A
C1613      C1614   1.415       .  A
C1613      H1620   1.082       .  S
C1614      S1616   1.809       .  S
S1615      H1618   1.407       .  S
S1616      H1617   1.407       .  S
C1621      C1622   1.405       .  A
C1621      C1626   1.420       .  A
C1622      C1623   1.397       .  A
C1622      H1631   1.084       .  S
C1623      C1624   1.410       .  A
C1623      S1627   1.803       .  S
C1624      C1625   1.398       .  A
C1625      C1626   1.406       .  A
C1625      H1632   1.084   1_554  S
C1626      S1628   1.802       .  S
S1627      H1630   1.407       .  S
S1628      H1629   1.408   1_554  S
C1633      C1634   1.391       .  A
C1633      C1638   1.412       .  A
C1634      C1635   1.393       .  A
C1634      H1643   1.083       .  S
C1635      C1636   1.426       .  A
C1635      S1639   1.811       .  S
C1636      C1637   1.405       .  A
C1637      C1638   1.401       .  A
C1637      H1644   1.082       .  S
C1638      S1640   1.808       .  S
S1639      H1642   1.407       .  S
S1640      H1641   1.407       .  S
C1645      C1646   1.411   1_556  A
C1645      C1650   1.415       .  A
C1646      C1647   1.411       .  A
C1646      H1655   1.083       .  S
C1647      C1648   1.409   1_554  A
C1647      S1651   1.804       .  S
C1648      C1649   1.407       .  A
C1649      C1650   1.411       .  A
C1649      H1656   1.083       .  S
C1650      S1652   1.802       .  S
S1651      H1654   1.407       .  S
S1652      H1653   1.408       .  S
C1657      C1658   1.403       .  A
C1657      C1662   1.412       .  A
C1658      C1659   1.403   1_554  A
C1658      H1667   1.084       .  S
C1659      C1660   1.416       .  A
C1659      S1663   1.805       .  S
C1660      C1661   1.404   1_556  A
C1661      C1662   1.404       .  A
C1661      H1668   1.082       .  S
C1662      S1664   1.804       .  S
S1663      H1666   1.399       .  S
S1664      H1665   1.406       .  S
C1669      C1670   1.403       .  A
C1669      C1674   1.424       .  A
C1670      C1671   1.407       .  A
C1670      H1679   1.084       .  S
C1671      C1672   1.420       .  A
C1671      S1675   1.804       .  S
C1672      C1673   1.403       .  A
C1673      C1674   1.412       .  A
C1673      H1680   1.083       .  S
C1674      S1676   1.803       .  S
S1675      H1678   1.404       .  S
S1676      H1677   1.407       .  S
C1681      C1682   1.406       .  A
C1681      C1686   1.401       .  A
C1682      C1683   1.403       .  A
C1682      H1691   1.082       .  S
C1683      C1684   1.418       .  A
C1683      S1687   1.809       .  S
C1684      C1685   1.412       .  A
C1685      C1686   1.393       .  A
C1685      H1692   1.083       .  S
C1686      S1688   1.800       .  S
S1687      H1690   1.408       .  S
S1688      H1689   1.406       .  S
C1693      C1694   1.402       .  A
C1693      C1698   1.411       .  A
C1694      C1695   1.398       .  A
C1694      H1703   1.085       .  S
C1695      C1696   1.416       .  A
C1695      S1699   1.802       .  S
C1696      C1697   1.408       .  A
C1697      C1698   1.401       .  A
C1697      H1704   1.084       .  S
C1698      S1700   1.807       .  S
S1699      H1702   1.408       .  S
S1700      H1701   1.403       .  S
C1705      C1706   1.408       .  A
C1705      C1710   1.415       .  A
C1706      C1707   1.402       .  A
C1706      H1715   1.083       .  S
C1707      C1708   1.426       .  A
C1707      S1711   1.814       .  S
C1708      C1709   1.417       .  A
C1709      C1710   1.424       .  A
C1709      H1716   1.082       .  S
C1710      S1712   1.802   1_545  S
S1711      H1714   1.407       .  S
S1712      H1713   1.407       .  S
C1717      C1718   1.404       .  A
C1717      C1722   1.420       .  A
C1718      C1719   1.410       .  A
C1718      H1727   1.084       .  S
C1719      C1720   1.421       .  A
C1719      S1723   1.805       .  S
C1720      C1721   1.402       .  A
C1721      C1722   1.406       .  A
C1721      H1728   1.084       .  S
C1722      S1724   1.803       .  S
S1723      H1726   1.404       .  S
S1724      H1725   1.407       .  S
C1729      C1730   1.404       .  A
C1729      C1734   1.414       .  A
C1730      C1731   1.405       .  A
C1730      H1739   1.084       .  S
C1731      C1732   1.414       .  A
C1731      S1735   1.802       .  S
C1732      C1733   1.407       .  A
C1733      C1734   1.404       .  A
C1733      H1740   1.084       .  S
C1734      S1736   1.804       .  S
S1735      H1738   1.407       .  S
S1736      H1737   1.403       .  S
C1741      C1742   1.405       .  A
C1741      C1746   1.411       .  A
C1742      C1743   1.400       .  A
C1742      H1751   1.084       .  S
C1743      C1744   1.410       .  A
C1743      S1747   1.802       .  S
C1744      C1745   1.404       .  A
C1745      C1746   1.401       .  A
C1745      H1752   1.084       .  S
C1746      S1748   1.801       .  S
S1747      H1750   1.405       .  S
S1748      H1749   1.406       .  S
C1753      C1754   1.403       .  A
C1753      C1758   1.409       .  A
C1754      C1755   1.394   1_655  A
C1754      H1763   1.084       .  S
C1755      C1756   1.415       .  A
C1755      S1759   1.803       .  S
C1756      C1757   1.408       .  A
C1757      C1758   1.386   1_455  A
C1757      H1764   1.084       .  S
C1758      S1760   1.806       .  S
S1759      H1762   1.408       .  S
S1760      H1761   1.408       .  S
C1765      C1766   1.395       .  A
C1765      C1770   1.420       .  A
C1766      C1767   1.405       .  A
C1766      H1775   1.083       .  S
C1767      C1768   1.438       .  A
C1767      S1771   1.814       .  S
C1768      C1769   1.407       .  A
C1769      C1770   1.409       .  A
C1769      H1776   1.083       .  S
C1770      S1772   1.803       .  S
S1771      H1774   1.408       .  S
S1772      H1773   1.408       .  S
C1777      C1778   1.400       .  A
C1777      C1782   1.419       .  A
C1778      C1779   1.397       .  A
C1778      H1787   1.083       .  S
C1779      C1780   1.409       .  A
C1779      S1783   1.806       .  S
C1780      C1781   1.401       .  A
C1781      C1782   1.405       .  A
C1781      H1788   1.084       .  S
C1782      S1784   1.800       .  S
S1783      H1786   1.407       .  S
S1784      H1785   1.403       .  S
C1789      C1790   1.400       .  A
C1789      C1794   1.406   1_655  A
C1790      C1791   1.387   1_655  A
C1790      H1799   1.085       .  S
C1791      C1792   1.406       .  A
C1791      S1795   1.805       .  S
C1792      C1793   1.405       .  A
C1793      C1794   1.394       .  A
C1793      H1800   1.083       .  S
C1794      S1796   1.808       .  S
S1795      H1798   1.408       .  S
S1796      H1797   1.407       .  S
C1801      C1802   1.407       .  A
C1801      C1806   1.429       .  A
C1802      C1803   1.399       .  A
C1802      H1811   1.082       .  S
C1803      C1804   1.406       .  A
C1803      S1807   1.807       .  S
C1804      C1805   1.393       .  A
C1805      C1806   1.398       .  A
C1805      H1812   1.083       .  S
C1806      S1808   1.810       .  S
S1807      H1810   1.407       .  S
S1808      H1809   1.405       .  S
C1813      C1814   1.409       .  A
C1813      C1818   1.414       .  A
C1814      C1815   1.406       .  A
C1814      H1823   1.084       .  S
C1815      C1816   1.412       .  A
C1815      S1819   1.800       .  S
C1816      C1817   1.409       .  A
C1817      C1818   1.408       .  A
C1817      H1824   1.084       .  S
C1818      S1820   1.799       .  S
S1819      H1822   1.404       .  S
S1820      H1821   1.406       .  S
C1825      C1826   1.397       .  A
C1825      C1830   1.424       .  A
C1826      C1827   1.410       .  A
C1826      H1835   1.082       .  S
C1827      C1828   1.434       .  A
C1827      S1831   1.811       .  S
C1828      C1829   1.404       .  A
C1829      C1830   1.414       .  A
C1829      H1836   1.082       .  S
C1830      S1832   1.807       .  S
S1831      H1834   1.408       .  S
S1832      H1833   1.407       .  S
C1837      C1838   1.400       .  A
C1837      C1842   1.414       .  A
C1838      C1839   1.399       .  A
C1838      H1847   1.080       .  S
C1839      C1840   1.421       .  A
C1839      S1843   1.809       .  S
C1840      C1841   1.406       .  A
C1841      C1842   1.391       .  A
C1841      H1848   1.084       .  S
C1842      S1844   1.803       .  S
S1843      H1846   1.407       .  S
S1844      H1845   1.407       .  S
C1849      C1850   1.404       .  A
C1849      C1854   1.422       .  A
C1850      C1851   1.402       .  A
C1850      H1859   1.084       .  S
C1851      C1852   1.417       .  A
C1851      S1855   1.806       .  S
C1852      C1853   1.405       .  A
C1853      C1854   1.414       .  A
C1853      H1860   1.084       .  S
C1854      S1856   1.803       .  S
S1855      H1858   1.407       .  S
S1856      H1857   1.406       .  S
C1861      C1862   1.403       .  A
C1861      C1866   1.406   1_556  A
C1862      C1863   1.394       .  A
C1862      H1871   1.085       .  S
C1863      C1864   1.415       .  A
C1863      S1867   1.804       .  S
C1864      C1865   1.406       .  A
C1865      C1866   1.397   1_556  A
C1865      H1872   1.084   1_556  S
C1866      S1868   1.799       .  S
S1867      H1870   1.407       .  S
S1868      H1869   1.406       .  S
C1873      C1874   1.410       .  A
C1873      C1878   1.437       .  A
C1874      C1875   1.398       .  A
C1874      H1883   1.083       .  S
C1875      C1876   1.402       .  A
C1875      S1879   1.790       .  S
C1876      C1877   1.389       .  A
C1877      C1878   1.401       .  A
C1877      H1884   1.083       .  S
C1878      S1880   1.809       .  S
S1879      H1882   1.408       .  S
S1880      H1881   1.407       .  S
C1885      C1886   1.404       .  A
C1885      C1890   1.413       .  A
C1886      C1887   1.400       .  A
C1886      H1895   1.084       .  S
C1887      C1888   1.411       .  A
C1887      S1891   1.799       .  S
C1888      C1889   1.403       .  A
C1889      C1890   1.393       .  A
C1889      H1896   1.085       .  S
C1890      S1892   1.805       .  S
S1891      H1894   1.407       .  S
S1892      H1893   1.407       .  S
C1897      C1898   1.406       .  A
C1897      C1902   1.420       .  A
C1898      C1899   1.409       .  A
C1898      H1907   1.084       .  S
C1899      C1900   1.419       .  A
C1899      S1903   1.802       .  S
C1900      C1901   1.404       .  A
C1901      C1902   1.407       .  A
C1901      H1908   1.084       .  S
C1902      S1904   1.801       .  S
S1903      H1906   1.407       .  S
S1904      H1905   1.407       .  S
C1909      C1910   1.405       .  A
C1909      C1914   1.417       .  A
C1910      C1911   1.409       .  A
C1910      H1919   1.083       .  S
C1911      C1912   1.412       .  A
C1911      S1915   1.806       .  S
C1912      C1913   1.401       .  A
C1913      C1914   1.405       .  A
C1913      H1920   1.084       .  S
C1914      S1916   1.804       .  S
S1915      H1918   1.407       .  S
S1916      H1917   1.407       .  S
C1921      C1922   1.410       .  A
C1921      C1926   1.415       .  A
C1922      C1923   1.415       .  A
C1922      H1931   1.084       .  S
C1923      C1924   1.416       .  A
C1923      S1927   1.800       .  S
C1924      C1925   1.403       .  A
C1925      C1926   1.405       .  A
C1925      H1932   1.084       .  S
C1926      S1928   1.803       .  S
S1927      H1930   1.406       .  S
S1928      H1929   1.406       .  S
C1933      C1934   1.406       .  A
C1933      C1938   1.416       .  A
C1934      C1935   1.405       .  A
C1934      H1943   1.084       .  S
C1935      C1936   1.413       .  A
C1935      S1939   1.803       .  S
C1936      C1937   1.406       .  A
C1937      C1938   1.411       .  A
C1937      H1944   1.084       .  S
C1938      S1940   1.801       .  S
S1939      H1942   1.406       .  S
S1940      H1941   1.405       .  S
C1945      C1946   1.411       .  A
C1945      C1950   1.422       .  A
C1946      C1947   1.421   1_655  A
C1946      H1955   1.083       .  S
C1947      C1948   1.422       .  A
C1947      S1951   1.801       .  S
C1948      C1949   1.411       .  A
C1949      C1950   1.422   1_455  A
C1949      H1956   1.084       .  S
C1950      S1952   1.801       .  S
S1951      H1954   1.407       .  S
S1952      H1953   1.406       .  S
C1957      C1958   1.406       .  A
C1957      C1962   1.410       .  A
C1958      C1959   1.383       .  A
C1958      H1967   1.078       .  S
C1959      C1960   1.397       .  A
C1959      S1963   1.801       .  S
C1960      C1961   1.407       .  A
C1961      C1962   1.401       .  A
C1961      H1968   1.084       .  S
C1962      S1964   1.801       .  S
S1963      H1966   1.408       .  S
S1964      H1965   1.406       .  S
C1969      C1970   1.409       .  A
C1969      C1974   1.416       .  A
C1970      C1971   1.403       .  A
C1970      H1979   1.084       .  S
C1971      C1972   1.413       .  A
C1971      S1975   1.801       .  S
C1972      C1973   1.416       .  A
C1973      C1974   1.417       .  A
C1973      H1980   1.084       .  S
C1974      S1976   1.802       .  S
S1975      H1978   1.407       .  S
S1976      H1977   1.405       .  S
C1981      C1982   1.404       .  A
C1981      C1986   1.402       .  A
C1982      C1983   1.398       .  A
C1982      H1991   1.079       .  S
C1983      C1984   1.413   1_556  A
C1983      S1987   1.810       .  S
C1984      C1985   1.411       .  A
C1985      C1986   1.394   1_554  A
C1985      H1992   1.084       .  S
C1986      S1988   1.799   1_556  S
S1987      H1990   1.404       .  S
S1988      H1989   1.406   1_554  S
C1993      C1994   1.418       .  A
C1993      C1998   1.417       .  A
C1994      C1995   1.436       .  A
C1994      H2003   1.082       .  S
C1995      C1996   1.424       .  A
C1995      S1999   1.801       .  S
C1996      C1997   1.414       .  A
C1997      C1998   1.399       .  A
C1997      H2004   1.083       .  S
C1998      S2000   1.806       .  S
S1999      H2002   1.407       .  S
S2000      H2001   1.408       .  S
C2005      C2006   1.404       .  A
C2005      C2010   1.423       .  A
C2006      C2007   1.388       .  A
C2006      H2015   1.084       .  S
C2007      C2008   1.402       .  A
C2007      S2011   1.792       .  S
C2008      C2009   1.395       .  A
C2009      C2010   1.397       .  A
C2009      H2016   1.083       .  S
C2010      S2012   1.808       .  S
S2011      H2014   1.407       .  S
S2012      H2013   1.407       .  S
C2017      C2018   1.402       .  A
C2017      C2022   1.414       .  A
C2018      C2019   1.402       .  A
C2018      H2027   1.083       .  S
C2019      C2020   1.414       .  A
C2019      S2023   1.808       .  S
C2020      C2021   1.396       .  A
C2021      C2022   1.394       .  A
C2021      H2028   1.084       .  S
C2022      S2024   1.802       .  S
S2023      H2026   1.407       .  S
S2024      H2025   1.407       .  S
C2029      C2030   1.405   1_556  A
C2029      C2034   1.412       .  A
C2030      C2031   1.408       .  A
C2030      H2039   1.083       .  S
C2031      C2032   1.414   1_554  A
C2031      S2035   1.802       .  S
C2032      C2033   1.405       .  A
C2033      C2034   1.406       .  A
C2033      H2040   1.083       .  S
C2034      S2036   1.807       .  S
S2035      H2038   1.406       .  S
S2036      H2037   1.407       .  S
C2041      C2042   1.400       .  A
C2041      C2046   1.414   1_556  A
C2042      C2043   1.394   1_556  A
C2042      H2051   1.085       .  S
C2043      C2044   1.414       .  A
C2043      S2047   1.805       .  S
C2044      C2045   1.401       .  A
C2045      C2046   1.403       .  A
C2045      H2052   1.084       .  S
C2046      S2048   1.801       .  S
S2047      H2050   1.407       .  S
S2048      H2049   1.406       .  S
C2053      C2054   1.410       .  A
C2053      C2058   1.422   1_565  A
C2054      C2055   1.421   1_655  A
C2054      H2063   1.084       .  S
C2055      C2056   1.423   1_565  A
C2055      S2059   1.804       .  S
C2056      C2057   1.410       .  A
C2057      C2058   1.421   1_455  A
C2057      H2064   1.084       .  S
C2058      S2060   1.801       .  S
S2059      H2062   1.406       .  S
S2060      H2061   1.407       .  S
C2065      C2066   1.400       .  A
C2065      C2070   1.411       .  A
C2066      C2067   1.397       .  A
C2066      H2075   1.084       .  S
C2067      C2068   1.416       .  A
C2067      S2071   1.800       .  S
C2068      C2069   1.394       .  A
C2069      C2070   1.386       .  A
C2069      H2076   1.084       .  S
C2070      S2072   1.793   1_545  S
S2071      H2074   1.408       .  S
S2072      H2073   1.407       .  S
C2077      C2078   1.422       .  A
C2077      C2082   1.413       .  A
C2078      C2079   1.411       .  A
C2078      H2087   1.082       .  S
C2079      C2080   1.413       .  A
C2079      S2083   1.801       .  S
C2080      C2081   1.421       .  A
C2081      C2082   1.412       .  A
C2081      H2088   1.081       .  S
C2082      S2084   1.809       .  S
S2083      H2086   1.407       .  S
S2084      H2085   1.406       .  S
C2089      C2090   1.400       .  A
C2089      C2094   1.406       .  A
C2090      C2091   1.404       .  A
C2090      H2099   1.084       .  S
C2091      C2092   1.421       .  A
C2091      S2095   1.809       .  S
C2092      C2093   1.410       .  A
C2093      C2094   1.390       .  A
C2093      H2100   1.083       .  S
C2094      S2096   1.808       .  S
S2095      H2098   1.407       .  S
S2096      H2097   1.406       .  S
C2101      C2102   1.407   1_565  A
C2101      C2106   1.426       .  A
C2102      C2103   1.420       .  A
C2102      H2111   1.084       .  S
C2103      C2104   1.425       .  A
C2103      S2107   1.800       .  S
C2104      C2105   1.412   1_545  A
C2105      C2106   1.428       .  A
C2105      H2112   1.083       .  S
C2106      S2108   1.801       .  S
S2107      H2110   1.406       .  S
S2108      H2109   1.404       .  S
C2113      C2114   1.413       .  A
C2113      C2118   1.418       .  A
C2114      C2115   1.396   1_565  A
C2114      H2123   1.081   1_565  S
C2115      C2116   1.402       .  A
C2115      S2119   1.808       .  S
C2116      C2117   1.400   1_545  A
C2117      C2118   1.397       .  A
C2117      H2124   1.084       .  S
C2118      S2120   1.804       .  S
S2119      H2122   1.407       .  S
S2120      H2121   1.407       .  S
C2125      C2126   1.409       .  A
C2125      C2130   1.405       .  A
C2126      C2127   1.402       .  A
C2126      H2135   1.084       .  S
C2127      C2128   1.411       .  A
C2127      S2131   1.801       .  S
C2128      C2129   1.407       .  A
C2129      C2130   1.391       .  A
C2129      H2136   1.084       .  S
C2130      S2132   1.799       .  S
S2131      H2134   1.406       .  S
S2132      H2133   1.406       .  S
C2137      C2138   1.400       .  A
C2137      C2142   1.408       .  A
C2138      C2139   1.399       .  A
C2138      H2147   1.084       .  S
C2139      C2140   1.423       .  A
C2139      S2143   1.809       .  S
C2140      C2141   1.416       .  A
C2141      C2142   1.413       .  A
C2141      H2148   1.082       .  S
C2142      S2144   1.803       .  S
S2143      H2146   1.405       .  S
S2144      H2145   1.407   1_565  S
C2149      C2150   1.408       .  A
C2149      C2154   1.418       .  A
C2150      C2151   1.419       .  A
C2150      H2159   1.080       .  S
C2151      C2152   1.418       .  A
C2151      S2155   1.806       .  S
C2152      C2153   1.402       .  A
C2153      C2154   1.405       .  A
C2153      H2160   1.083       .  S
C2154      S2156   1.808       .  S
S2155      H2158   1.406       .  S
S2156      H2157   1.407       .  S
C2161      C2162   1.402       .  A
C2161      C2166   1.410       .  A
C2162      C2163   1.395       .  A
C2162      H2171   1.084       .  S
C2163      C2164   1.408       .  A
C2163      S2167   1.801       .  S
C2164      C2165   1.406       .  A
C2165      C2166   1.408       .  A
C2165      H2172   1.083       .  S
C2166      S2168   1.804       .  S
S2167      H2170   1.404       .  S
S2168      H2169   1.407       .  S
C2173      C2174   1.404       .  A
C2173      C2178   1.412       .  A
C2174      C2175   1.406       .  A
C2174      H2183   1.083       .  S
C2175      C2176   1.410       .  A
C2175      S2179   1.807       .  S
C2176      C2177   1.401       .  A
C2177      C2178   1.403       .  A
C2177      H2184   1.083       .  S
C2178      S2180   1.807       .  S
S2179      H2182   1.407       .  S
S2180      H2181   1.407       .  S
C2185      C2186   1.409       .  A
C2185      C2190   1.425   1_655  A
C2186      C2187   1.426       .  A
C2186      H2195   1.082       .  S
C2187      C2188   1.424       .  A
C2187      S2191   1.804       .  S
C2188      C2189   1.408       .  A
C2189      C2190   1.422   1_655  A
C2189      H2196   1.083   1_655  S
C2190      S2192   1.801       .  S
S2191      H2194   1.407       .  S
S2192      H2193   1.405       .  S
C2197      C2198   1.406       .  A
C2197      C2202   1.410       .  A
C2198      C2199   1.387       .  A
C2198      H2207   1.082       .  S
C2199      C2200   1.407   1_455  A
C2199      S2203   1.808   1_455  S
C2200      C2201   1.402       .  A
C2201      C2202   1.393   1_655  A
C2201      H2208   1.082       .  S
C2202      S2204   1.804       .  S
S2203      H2206   1.407   1_655  S
S2204      H2205   1.407       .  S
C2209      C2210   1.405       .  A
C2209      C2214   1.410       .  A
C2210      C2211   1.395       .  A
C2210      H2219   1.081       .  S
C2211      C2212   1.402       .  A
C2211      S2215   1.805       .  S
C2212      C2213   1.407       .  A
C2213      C2214   1.403       .  A
C2213      H2220   1.083       .  S
C2214      S2216   1.803       .  S
S2215      H2218   1.407       .  S
S2216      H2217   1.405       .  S
C2221      C2222   1.411       .  A
C2221      C2226   1.413       .  A
C2222      C2223   1.415       .  A
C2222      H2231   1.084       .  S
C2223      C2224   1.416       .  A
C2223      S2227   1.799       .  S
C2224      C2225   1.410       .  A
C2225      C2226   1.404       .  A
C2225      H2232   1.084       .  S
C2226      S2228   1.804       .  S
S2227      H2230   1.404       .  S
S2228      H2229   1.407       .  S
C2233      C2234   1.400       .  A
C2233      C2238   1.406       .  A
C2234      C2235   1.392       .  A
C2234      H2243   1.084       .  S
C2235      C2236   1.411       .  A
C2235      S2239   1.804       .  S
C2236      C2237   1.402       .  A
C2237      C2238   1.394       .  A
C2237      H2244   1.083       .  S
C2238      S2240   1.807       .  S
S2239      H2242   1.407       .  S
S2240      H2241   1.407       .  S
C2245      C2246   1.415       .  A
C2245      C2250   1.422       .  A
C2246      C2247   1.419   1_545  A
C2246      H2255   1.084       .  S
C2247      C2248   1.423       .  A
C2247      S2251   1.804       .  S
C2248      C2249   1.419   1_665  A
C2249      C2250   1.438   1_455  A
C2249      H2256   1.082       .  S
C2250      S2252   1.799   1_655  S
S2251      H2254   1.405       .  S
S2252      H2253   1.407       .  S
C2257      C2258   1.402       .  A
C2257      C2262   1.412       .  A
C2258      C2259   1.397       .  A
C2258      H2267   1.083       .  S
C2259      C2260   1.412       .  A
C2259      S2263   1.807       .  S
C2260      C2261   1.403       .  A
C2261      C2262   1.392       .  A
C2261      H2268   1.084       .  S
C2262      S2264   1.805       .  S
S2263      H2266   1.407       .  S
S2264      H2265   1.407       .  S
C2269      C2270   1.404       .  A
C2269      C2274   1.416       .  A
C2270      C2271   1.394       .  A
C2270      H2279   1.080       .  S
C2271      C2272   1.415       .  A
C2271      S2275   1.811       .  S
C2272      C2273   1.399       .  A
C2273      C2274   1.389       .  A
C2273      H2280   1.081       .  S
C2274      S2276   1.810       .  S
S2275      H2278   1.407       .  S
S2276      H2277   1.406       .  S
C2281      C2282   1.408       .  A
C2281      C2286   1.419       .  A
C2282      C2283   1.394       .  A
C2282      H2291   1.084       .  S
C2283      C2284   1.404       .  A
C2283      S2287   1.800       .  S
C2284      C2285   1.400       .  A
C2285      C2286   1.398       .  A
C2285      H2292   1.084       .  S
C2286      S2288   1.808       .  S
S2287      H2290   1.406       .  S
S2288      H2289   1.407       .  S
C2293      C2294   1.411       .  A
C2293      C2298   1.419       .  A
C2294      C2295   1.416       .  A
C2294      H2303   1.083       .  S
C2295      C2296   1.418       .  A
C2295      S2299   1.801       .  S
C2296      C2297   1.407       .  A
C2297      C2298   1.412       .  A
C2297      H2304   1.083       .  S
C2298      S2300   1.808       .  S
S2299      H2302   1.407       .  S
S2300      H2301   1.406       .  S
C2305      C2306   1.407       .  A
C2305      C2310   1.419       .  A
C2306      C2307   1.423       .  A
C2306      H2315   1.083       .  S
C2307      C2308   1.428       .  A
C2307      S2311   1.808       .  S
C2308      C2309   1.406       .  A
C2309      C2310   1.411       .  A
C2309      H2316   1.083       .  S
C2310      S2312   1.800       .  S
S2311      H2314   1.407       .  S
S2312      H2313   1.407       .  S
C2317      C2318   1.407       .  A
C2317      C2322   1.403       .  A
C2318      C2319   1.394       .  A
C2318      H2327   1.083       .  S
C2319      C2320   1.409       .  A
C2319      S2323   1.803       .  S
C2320      C2321   1.407       .  A
C2321      C2322   1.393       .  A
C2321      H2328   1.082       .  S
C2322      S2324   1.802       .  S
S2323      H2326   1.407       .  S
S2324      H2325   1.408       .  S
C2329      C2330   1.401       .  A
C2329      C2334   1.402       .  A
C2330      C2331   1.388       .  A
C2330      H2339   1.084   1_565  S
C2331      C2332   1.407       .  A
C2331      S2335   1.805       .  S
C2332      C2333   1.401       .  A
C2333      C2334   1.377       .  A
C2333      H2340   1.084       .  S
C2334      S2336   1.807       .  S
S2335      H2338   1.407       .  S
S2336      H2337   1.407       .  S
C2341      C2342   1.415       .  A
C2341      C2346   1.417       .  A
C2342      C2343   1.424   1_565  A
C2342      H2351   1.083       .  S
C2343      C2344   1.419       .  A
C2343      S2347   1.800       .  S
C2344      C2345   1.409   1_545  A
C2345      C2346   1.407       .  A
C2345      H2352   1.084       .  S
C2346      S2348   1.805       .  S
S2347      H2350   1.406       .  S
S2348      H2349   1.407       .  S
C2353      C2354   1.411       .  A
C2353      C2358   1.409       .  A
C2354      C2355   1.411       .  A
C2354      H2363   1.082       .  S
C2355      C2356   1.411       .  A
C2355      S2359   1.797       .  S
C2356      C2357   1.419       .  A
C2357      C2358   1.402       .  A
C2357      H2364   1.083       .  S
C2358      S2360   1.802       .  S
S2359      H2362   1.404       .  S
S2360      H2361   1.407       .  S
C2365      C2366   1.414       .  A
C2365      C2370   1.414       .  A
C2366      C2367   1.401       .  A
C2366      H2375   1.082       .  S
C2367      C2368   1.408       .  A
C2367      S2371   1.807       .  S
C2368      C2369   1.408       .  A
C2369      C2370   1.398       .  A
C2369      H2376   1.083       .  S
C2370      S2372   1.801       .  S
S2371      H2374   1.407       .  S
S2372      H2373   1.408       .  S
C2377      C2378   1.416       .  A
C2377      C2382   1.424       .  A
C2378      C2379   1.433       .  A
C2378      H2387   1.083       .  S
C2379      C2380   1.429       .  A
C2379      S2383   1.795       .  S
C2380      C2381   1.412       .  A
C2381      C2382   1.406       .  A
C2381      H2388   1.083       .  S
C2382      S2384   1.803       .  S
S2383      H2386   1.407       .  S
S2384      H2385   1.408       .  S
C2389      C2390   1.410       .  A
C2389      C2394   1.423       .  A
C2390      C2391   1.396       .  A
C2390      H2399   1.082       .  S
C2391      C2392   1.404       .  A
C2391      S2395   1.806       .  S
C2392      C2393   1.394       .  A
C2393      C2394   1.391       .  A
C2393      H2400   1.082       .  S
C2394      S2396   1.811   1_556  S
S2395      H2398   1.407       .  S
S2396      H2397   1.407       .  S
C2401      C2402   1.400       .  A
C2401      C2406   1.408       .  A
C2402      C2403   1.393       .  A
C2402      H2411   1.077   1_554  S
C2403      C2404   1.402       .  A
C2403      S2407   1.820   1_554  S
C2404      C2405   1.403       .  A
C2405      C2406   1.395       .  A
C2405      H2412   1.084       .  S
C2406      S2408   1.803       .  S
S2407      H2410   1.406       .  S
S2408      H2409   1.406       .  S
C2413      C2414   1.409       .  A
C2413      C2418   1.402       .  A
C2414      C2415   1.406       .  A
C2414      H2423   1.082       .  S
C2415      C2416   1.416       .  A
C2415      S2419   1.806       .  S
C2416      C2417   1.417       .  A
C2417      C2418   1.402       .  A
C2417      H2424   1.082       .  S
C2418      S2420   1.807       .  S
S2419      H2422   1.406       .  S
S2420      H2421   1.406       .  S
C2425      C2426   1.402       .  A
C2425      C2430   1.407       .  A
C2426      C2427   1.408       .  A
C2426      H2435   1.083       .  S
C2427      C2428   1.418       .  A
C2427      S2431   1.801       .  S
C2428      C2429   1.407       .  A
C2429      C2430   1.390       .  A
C2429      H2436   1.084       .  S
C2430      S2432   1.807       .  S
S2431      H2434   1.408       .  S
S2432      H2433   1.406       .  S
C2437      C2438   1.415   1_554  A
C2437      C2442   1.405       .  A
C2438      C2439   1.408       .  A
C2438      H2447   1.081       .  S
C2439      C2440   1.412       .  A
C2439      S2443   1.807       .  S
C2440      C2441   1.416   1_556  A
C2441      C2442   1.408       .  A
C2441      H2448   1.082       .  S
C2442      S2444   1.797       .  S
S2443      H2446   1.407       .  S
S2444      H2445   1.404       .  S
