geometry optimzed in LAMMPS
_audit_creation_date              2020-11-30 
_audit_creation_method            'lammps2cif' 
_symmetry_space_group_name_H-M    'P1' 
_symmetry_Int_Tables_number       1 
_symmetry_cell_setting            triclinic 
loop_ 
_symmetry_equiv_pos_as_xyz 
  x,y,z 
_cell_length_a                    35.77891394525448 
_cell_length_b                    35.79508852676319 
_cell_length_c                    35.70424751984145 
_cell_angle_alpha                 89.98058600076361 
_cell_angle_beta                  90.03318782859132 
_cell_angle_gamma                 89.99588472002957 
loop_ 
_atom_site_label 
_atom_site_type_symbol 
_atom_site_fract_x 
_atom_site_fract_y 
_atom_site_fract_z 
_atom_site_charge 
C1          C  0.75015583  0.80784508  0.77408368     0.03010
C2          C  0.74764341  0.78281765  0.80430710    -0.13140
C3          C  0.77443054  0.75472477  0.80978724     0.00510
C4          C  0.80335673  0.75071296  0.78342677    -0.11670
C5          C  0.80657876  0.77502024  0.75268983     0.03000
C6          C  0.77928280  0.80305306  0.74804967    -0.11090
H7          H  0.72535402  0.78591639  0.82444301     0.08590
H8          H  0.82410216  0.72924088  0.78758035     0.06120
H9          H  0.78134836  0.82194384  0.72463073     0.05970
C10         C  0.27648614  0.82241872  0.26736525     0.03010
C11         C  0.24980248  0.79405336  0.27265565    -0.13140
C12         C  0.25285465  0.76804754  0.30206863     0.00510
C13         C  0.28275285  0.77163985  0.32730795    -0.11670
C14         C  0.30979258  0.79981516  0.32304247     0.03000
C15         C  0.30607042  0.82521313  0.29321777    -0.11090
H16         H  0.22692498  0.79152059  0.25320831     0.08590
H17         H  0.28551136  0.75195369  0.35000285     0.06120
H18         H  0.32670236  0.84689344  0.28985260     0.05970
C19         C  0.82310409  0.80677520  0.30364437     0.03010
C20         C  0.79342446  0.80276308  0.32901622    -0.13140
C21         C  0.76746617  0.77356564  0.32555662     0.00510
C22         C  0.77228432  0.74715593  0.29691887    -0.11670
C23         C  0.80152518  0.75052783  0.27080519     0.03000
C24         C  0.82706576  0.78018449  0.27488794    -0.11090
H25         H  0.78958655  0.82324914  0.35087820     0.08590
H26         H  0.75238946  0.72460347  0.29424594     0.06120
H27         H  0.84948360  0.78331012  0.25493465     0.05970
C28         C  0.30499559  0.27438356  0.25340810     0.03010
C29         C  0.27922141  0.30389884  0.24983101    -0.13140
C30         C  0.25002905  0.30884446  0.27572901     0.00510
C31         C  0.24604105  0.28266234  0.30482962    -0.11670
C32         C  0.27132864  0.25297220  0.30933160     0.03000
C33         C  0.30030832  0.24888313  0.28304075    -0.11090
H34         H  0.28247822  0.32371303  0.22731856     0.08590
H35         H  0.22368293  0.28602049  0.32475801     0.06120
H36         H  0.31993753  0.22627360  0.28633983     0.05970
C37         C  0.76772560  0.29976347  0.25268038     0.03010
C38         C  0.77230448  0.32612776  0.28145264    -0.13140
C39         C  0.80085299  0.32256769  0.30830724     0.00510
C40         C  0.82588992  0.29244686  0.30523585    -0.11670
C41         C  0.82227074  0.26566505  0.27661916     0.03000
C42         C  0.79339067  0.27004607  0.25026236    -0.11090
H43         H  0.75292336  0.34908656  0.28361067     0.08590
H44         H  0.84786782  0.28938760  0.32568240     0.06120
H45         H  0.79038572  0.24969819  0.22820574     0.05970
C46         C  0.75457200  0.26716999  0.80053566     0.03010
C47         C  0.78368660  0.27144893  0.82663821    -0.13140
C48         C  0.80961465  0.30083832  0.82358620     0.00510
C49         C  0.80514678  0.32691192  0.79446552    -0.11670
C50         C  0.77647498  0.32320823  0.76769609     0.03000
C51         C  0.75133918  0.29320093  0.77123549    -0.11090
H52         H  0.78657412  0.25136809  0.84904883     0.08590
H53         H  0.82468576  0.34974094  0.79216125     0.06120
H54         H  0.72935841  0.28964235  0.75082972     0.05970
C55         C  0.30210463  0.82480038  0.80734298     0.03010
C56         C  0.27226883  0.82753103  0.78180612    -0.13140
C57         C  0.26833493  0.80221069  0.75191767     0.00510
C58         C  0.29575821  0.77427131  0.74751170    -0.11670
C59         C  0.32548759  0.77036307  0.77303339     0.03000
C60         C  0.32877468  0.79649065  0.80219372    -0.11090
H61         H  0.25153451  0.84896604  0.78595486     0.08590
H62         H  0.29334850  0.75466912  0.72477803     0.06120
H63         H  0.35156356  0.79393729  0.82182280     0.05970
O64         O  0.05243475  0.02504941  0.96147861    -0.88470
C65         C  0.10698417  0.01342827  0.05993667     0.87560
Mg66       Mg  0.02023514  0.07409266  0.95012283     1.58150
O67         O  0.02549782  0.95844382  0.05267626    -0.88200
O68         O  0.04442065  0.96433585  0.96576449    -0.75530
C69         C  0.92293953  0.10538898  0.10547391     0.92610
O70         O  0.08921830  0.08859128  0.01416105    -0.75340
O71         O  0.93206573  0.12206302  0.07537912    -0.82850
Mg72       Mg  0.10763075  0.03560952  0.98319636     1.57960
C73         C  0.95293732  0.95686820  0.14373001     0.92530
O74         O  0.13398263  0.98608882  0.95250376    -0.81110
H75         H  0.99449352  0.92029926  0.02597220    -0.06450
C76         C  0.01551821  0.05670069  0.10854796     0.87470
O77         O  0.96575713  0.04374471  0.96664713    -0.75620
O78         O  0.09333322  0.00257450  0.03010507    -0.88380
O79         O  0.98626985  0.94855517  0.13435519    -0.81190
C80         C  0.10279865  0.91997308  0.10648816     0.92650
C81         C  0.14208434  0.95204259  0.95882424     0.92500
Mg82       Mg  0.94797780  0.01851524  0.07668516     1.57950
O83         O  0.92867132  0.07048165  0.10996519    -0.81120
O84         O  0.96467396  0.96441143  0.04565343    -0.75360
O85         O  0.10697935  0.92631468  0.07159821    -0.81200
O86         O  0.12394076  0.07298457  0.93504089    -0.82910
O87         O  0.95073765  0.13396820  0.98757128    -0.81230
C88         C  0.99508583  0.94641333  0.04117080     0.86940
O89         O  0.95937777  0.05135022  0.02744595    -0.88370
O90         O  0.00422085  0.02711082  0.09484234    -0.88480
O91         O  0.01104380  0.08770736  0.09190460    -0.75530
Mg92       Mg  0.07459011  0.94676684  0.01993848     1.57970
O93         O  0.07312837  0.92962984  0.12352901    -0.82910
H94         H  0.02627924  0.99546316  0.92181673    -0.06630
O95         O  0.02877178  0.09246014  0.00629990    -0.88180
H96         H  0.05787790  0.13173375  0.03336291    -0.06460
H97         H  0.92115343  0.02488871  0.99630652    -0.06630
C98         C  0.05839532  0.10561162  0.01818370     0.86920
C99         C  0.04088232  0.99516361  0.94833561     0.87500
C100        C  0.94744023  0.03977233  0.99698273     0.87550
H101        H  0.03037744  0.05605643  0.13491295    -0.06610
O102        O  0.09002437  0.00917612  0.09079975    -0.75640
Mg103      Mg  0.98081476  0.10657860  0.03833879     1.58000
H104        H  0.13347996  0.02793882  0.05958182    -0.06630
C105        C  0.10702693  0.10257834  0.92506065     0.92540
O106        O  0.98636030  0.12517705  0.93723808    -0.82870
C107        C  0.96019763  0.14222623  0.95408911     0.92600
O108        O  0.12577365  0.93364950  0.98460886    -0.82850
Mg109      Mg  0.03643395  0.97896215  0.10838693     1.58180
O110        O  0.07209285  0.10680974  0.93061933    -0.81190
O111        O  0.93512523  0.98337977  0.12803571    -0.82880
C112        C  0.18497829  0.30384847  0.88561445     0.03010
C113        C  0.16837962  0.26919678  0.89304262    -0.13140
C114        C  0.18361440  0.23632450  0.87824797     0.00510
C115        C  0.21672543  0.23801492  0.85734446    -0.11670
C116        C  0.23342771  0.27268207  0.84879771     0.03000
C117        C  0.21701319  0.30546969  0.86316335    -0.11090
H118        H  0.14348324  0.26775266  0.91027412     0.08590
H119        H  0.22893550  0.21217171  0.84747252     0.06120
H120        H  0.22810233  0.33266401  0.85598054     0.05970
C121        C  0.88754533  0.18710254  0.30743100     0.03010
C122        C  0.86299093  0.21754347  0.30847536    -0.13140
C123        C  0.84744483  0.23226718  0.27529963     0.00510
C124        C  0.85589024  0.21450403  0.24106447    -0.11670
C125        C  0.87826240  0.18237289  0.24016901     0.03000
C126        C  0.89460499  0.16914526  0.27328949    -0.11090
H127        H  0.85654320  0.22972353  0.33542737     0.08590
H128        H  0.84539558  0.22544862  0.21483807     0.06120
H129        H  0.91305843  0.14514062  0.27242664     0.05970
C130        C  0.30522479  0.88827298  0.18812671     0.03010
C131        C  0.30700108  0.86404313  0.21889904    -0.13140
C132        C  0.27437097  0.84782007  0.23398328     0.00510
C133        C  0.23991122  0.85543737  0.21627686    -0.11670
C134        C  0.23819053  0.87732564  0.18371767     0.03000
C135        C  0.27087388  0.89426798  0.17025736    -0.11090
H136        H  0.33413383  0.85826800  0.23089122     0.08590
H137        H  0.21408874  0.84439981  0.22739941     0.06120
H138        H  0.26954622  0.91244505  0.14601005     0.05970
O139        O  0.04341726  0.50066755  0.48518177    -0.88470
C140        C  0.03260170  0.44990991  0.58602844     0.87560
Mg141      Mg  0.09296575  0.52861284  0.46883631     1.58150
O142        O  0.98453726  0.53456029  0.57596268    -0.88200
O143        O  0.98388118  0.51269444  0.49061606    -0.75530
C144        C  0.13417909  0.63984030  0.61056995     0.92610
O145        O  0.10650276  0.46033940  0.53282125    -0.75340
O146        O  0.14940080  0.62411774  0.58251631    -0.82850
Mg147      Mg  0.04989665  0.44509609  0.50504839     1.57960
C148        C  0.98546927  0.61580383  0.65659098     0.92530
O149        O  0.99506630  0.42585498  0.47574114    -0.81110
H150        H  0.94560005  0.56541722  0.55031208    -0.06450
C151        C  0.08548224  0.54224640  0.62796427     0.87470
O152        O  0.06642616  0.58500890  0.48415725    -0.75620
O153        O  0.02087273  0.46143629  0.55546224    -0.88380
O154        O  0.97605074  0.58173029  0.65173229    -0.81190
C155        C  0.93343031  0.46915441  0.63190133     0.92650
C156        C  0.96062872  0.42230978  0.48433952     0.92500
Mg157      Mg  0.04797682  0.60929921  0.59326228     1.57950
O158        O  0.10127518  0.63171571  0.62140268    -0.81120
O159        O  0.99180866  0.59435108  0.56598494    -0.75360
O160        O  0.94145936  0.45925406  0.59865358    -0.81200
O161        O  0.08092624  0.42836081  0.45179790    -0.82910
O162        O  0.15253879  0.59944703  0.49656832    -0.81230
C163        C  0.97260370  0.56462203  0.56388799     0.86940
O164        O  0.07676723  0.59194962  0.54410270    -0.88370
O165        O  0.05524644  0.55440164  0.61616388    -0.88480
O166        O  0.11550751  0.54479045  0.60890190    -0.75530
Mg167      Mg  0.96681934  0.48615281  0.54645605     1.57970
O168        O  0.95061306  0.49560069  0.64843500    -0.82910
H169        H  0.01456774  0.52675942  0.44497421    -0.06630
O170        O  0.11523657  0.52049610  0.52381162    -0.88180
H171        H  0.15266225  0.48845581  0.55038820    -0.06460
H172        H  0.05134002  0.63119987  0.51343700    -0.06630
C173        C  0.12607828  0.48994324  0.53604955     0.86920
C174        C  0.01413839  0.51350370  0.47218075     0.87500
C175        C  0.06464903  0.60409303  0.51406378     0.87550
H176        H  0.08631394  0.52856631  0.65495499    -0.06610
O177        O  0.03021368  0.46935862  0.61583619    -0.75640
Mg178      Mg  0.13199786  0.57115902  0.55191134     1.58000
H179        H  0.04598323  0.42285474  0.58729638    -0.06630
C180        C  0.10927297  0.44360115  0.43665747     0.92540
O181        O  0.14358523  0.55928610  0.45004619    -0.82870
C182        C  0.15736044  0.58939327  0.46259180     0.92600
O183        O  0.94715377  0.43659566  0.51394953    -0.82850
Mg184      Mg  0.00411489  0.52634388  0.63181927     1.58180
O185        O  0.12094338  0.47564812  0.44651803    -0.81190
O186        O  0.01589823  0.62870945  0.64360195    -0.82880
C187        C  0.77110126  0.38953865  0.38577463     0.03010
C188        C  0.80536663  0.39645193  0.40338048    -0.13140
C189        C  0.83810648  0.37866761  0.39131816     0.00510
C190        C  0.83710151  0.35623303  0.35916187    -0.11670
C191        C  0.80290151  0.34889739  0.34078152     0.03000
C192        C  0.76998426  0.36540487  0.35497833    -0.11090
H193        H  0.80652947  0.41525870  0.42713927     0.08590
H194        H  0.86293863  0.34407143  0.34925238     0.06120
H195        H  0.74297097  0.35866437  0.34316865     0.05970
C196        C  0.18674249  0.69002629  0.27310855     0.03010
C197        C  0.21015511  0.72111914  0.27177140    -0.13140
C198        C  0.22644663  0.73569965  0.30462570     0.00510
C199        C  0.21928465  0.71742106  0.33903122    -0.11670
C200        C  0.19730380  0.68489802  0.34023747     0.03000
C201        C  0.18052373  0.67192935  0.30716187    -0.11090
H202        H  0.21675039  0.73255980  0.24452689     0.08590
H203        H  0.23156732  0.72751059  0.36476659     0.06120
H204        H  0.16330952  0.64700288  0.30768504     0.05970
C205        C  0.88450051  0.80489934  0.68630343     0.03010
C206        C  0.85340764  0.80582235  0.70999296    -0.13140
C207        C  0.83991680  0.77311145  0.72732873     0.00510
C208        C  0.85967598  0.73937403  0.72157853    -0.11670
C209        C  0.89253680  0.73875400  0.70006006     0.03000
C210        C  0.90406946  0.77138102  0.68157279    -0.11090
H211        H  0.84013856  0.83251581  0.71486238     0.08590
H212        H  0.85016689  0.71356489  0.73411648     0.06120
H213        H  0.92880491  0.77083620  0.66406072     0.05970
O214        O  0.08942091  0.04212907  0.57848848    -0.88470
C215        C  0.98811885  0.03450335  0.62925674     0.87560
Mg216      Mg  0.10647517  0.09082802  0.54890874     1.58150
O217        O  0.99797342  0.98422172  0.54589595    -0.88200
O218        O  0.08269982  0.98229955  0.56863128    -0.75530
C219        C  0.96327185  0.13212215  0.43861811     0.92610
O220        O  0.04329722  0.10719969  0.61791050    -0.75340
O221        O  0.99095214  0.14806070  0.45435508    -0.82850
Mg222      Mg  0.06952726  0.05030842  0.63420189     1.57960
C223        C  0.91778137  0.98462760  0.46394672     0.92530
O224        O  0.09752848  0.99494242  0.65491955    -0.81110
H225        H  0.02392451  0.94469336  0.51610174    -0.06450
C226        C  0.94709233  0.08492943  0.53657399     0.87470
O227        O  0.09016284  0.06389971  0.49303515    -0.75620
O228        O  0.01855263  0.02222326  0.61814482    -0.88380
O229        O  0.92260981  0.97515772  0.49808063    -0.81190
C230        C  0.94052667  0.93639096  0.61245677     0.92650
C231        C  0.08776580  0.96091927  0.65958140     0.92500
Mg232      Mg  0.98168885  0.04621505  0.46969854     1.57950
O233        O  0.95404457  0.09864914  0.44612977    -0.81120
O234        O  0.00867053  0.99030551  0.48596677    -0.75360
O235        O  0.97324470  0.94500712  0.62336958    -0.81200
O236        O  0.12303204  0.08094305  0.65051108    -0.82910
O237        O  0.07748576  0.15096046  0.47815347    -0.81230
C238        C  0.01039104  0.97169686  0.51617391     0.86940
O239        O  0.03051234  0.07522696  0.48651746    -0.88370
O240        O  0.95854575  0.05461925  0.52437130    -0.88480
O241        O  0.96642317  0.11472385  0.53413982    -0.75530
Mg242      Mg  0.02630375  0.96737734  0.59541029     1.57970
O243        O  0.92537636  0.95155751  0.58405535    -0.82910
H244        H  0.12887468  0.01151726  0.55339693    -0.06630
O245        O  0.05196681  0.11435221  0.55738543    -0.88180
H246        H  0.02706359  0.15329170  0.58889386    -0.06460
H247        H  0.06032878  0.04926167  0.44699312    -0.06630
C248        C  0.04048253  0.12624672  0.58786951     0.86920
C249        C  0.10172027  0.01214685  0.56664458     0.87500
C250        C  0.06017920  0.06268322  0.47411208     0.87550
H251        H  0.92024956  0.08596254  0.55042765    -0.06610
O252        O  0.95835435  0.03155430  0.60979921    -0.75640
Mg253      Mg  0.02287615  0.13070362  0.50699614     1.58000
H254        H  0.98687969  0.04864513  0.65598065    -0.06630
C255        C  0.13943845  0.10795979  0.63412930     0.92540
O256        O  0.12557902  0.14076660  0.51642313    -0.82870
C257        C  0.11175317  0.15528367  0.48711049     0.92600
O258        O  0.05747057  0.94836380  0.64604107    -0.82850
Mg259      Mg  0.94244645  0.00426218  0.55304303     1.58180
O260        O  0.13060724  0.11851448  0.60128566    -0.81190
O261        O  0.93149243  0.01449664  0.45067424    -0.82880
C262        C  0.19017127  0.77087674  0.68588138     0.03010
C263        C  0.22157523  0.77045987  0.70931079    -0.13140
C264        C  0.23444376  0.80329372  0.72704082     0.00510
C265        C  0.21376767  0.83656808  0.72184804    -0.11670
C266        C  0.18062684  0.83673987  0.70074136     0.03000
C267        C  0.16964598  0.80398493  0.68209862    -0.11090
H268        H  0.23559682  0.74407546  0.71355414     0.08590
H269        H  0.22285671  0.86248607  0.73439663     0.06120
H270        H  0.14483279  0.80418585  0.66469942     0.05970
C271        C  0.30044209  0.19050095  0.39103018     0.03010
C272        C  0.30185581  0.21264662  0.35866417    -0.13140
C273        C  0.26908986  0.22810586  0.34299355     0.00510
C274        C  0.23462360  0.22109818  0.36089869    -0.11670
C275        C  0.23317439  0.20046401  0.39420967     0.03000
C276        C  0.26609256  0.18538855  0.40913125    -0.11090
H277        H  0.32884610  0.21799381  0.34617985     0.08590
H278        H  0.20882838  0.23204270  0.34955377     0.06120
H279        H  0.26488790  0.16965597  0.43504891     0.05970
C280        C  0.88314487  0.88921027  0.27316752     0.03010
C281        C  0.86215423  0.85624180  0.27219024    -0.13140
C282        C  0.84772760  0.84046339  0.30536861     0.00510
C283        C  0.85504161  0.85856032  0.33976409    -0.11670
C284        C  0.87498222  0.89227725  0.34078298     0.03000
C285        C  0.88934322  0.90710894  0.30742305    -0.11090
H286        H  0.85650114  0.84372556  0.24520200     0.08590
H287        H  0.84472525  0.84706342  0.36580722     0.06120
H288        H  0.90529387  0.93285954  0.30807469     0.05970
O289        O  0.45892374  0.52402341  0.04994223    -0.88470
C290        C  0.55707712  0.46771858  0.06238101     0.87560
Mg291      Mg  0.44815880  0.55787316  0.00132736     1.58150
O292        O  0.54999135  0.54842536  0.11899305    -0.88200
O293        O  0.46315030  0.53002603  0.11110669    -0.75530
C294        C  0.60674700  0.65082194  0.97296452     0.92610
O295        O  0.51136003  0.48790865  0.98581667    -0.75340
O296        O  0.57700633  0.64308717  0.95502824    -0.82850
Mg297      Mg  0.48017278  0.46875939  0.03834440     1.57960
C298        C  0.64150495  0.62087096  0.12166507     0.92530
O299        O  0.44898106  0.44097033  0.08719173    -0.81110
H300        H  0.52253124  0.57954057  0.15653565    -0.06450
C301        C  0.60499414  0.55663833  0.02108735     0.87470
O302        O  0.46576264  0.61119016  0.03283784    -0.75620
O303        O  0.52723660  0.48179927  0.07243069    -0.88380
O304        O  0.63243225  0.58752532  0.13042046    -0.81190
C305        C  0.60271351  0.47068519  0.15781426     0.92650
C306        C  0.45592590  0.43158322  0.12090329     0.92500
Mg307      Mg  0.57535896  0.62574176  0.05899687     1.57950
O308        O  0.61009623  0.64417382  0.00786599    -0.81120
O309        O  0.54318556  0.60925598  0.11268609    -0.75360
O310        O  0.56834642  0.46575712  0.14959252    -0.81200
O311        O  0.43202087  0.45416175  0.99979535    -0.82910
O312        O  0.48824245  0.62747322  0.94265161    -0.81230
C313        C  0.53826810  0.57887648  0.13070131     0.86940
O314        O  0.52657553  0.61586242  0.02544292    -0.88370
O315        O  0.59267475  0.56928848  0.05079923    -0.88480
O316        O  0.58857170  0.56209996  0.99002067    -0.75530
Mg317      Mg  0.51687058  0.49904865  0.12881430     1.57970
O318        O  0.61975120  0.50062332  0.14894952    -0.82910
H319        H  0.41967861  0.54979237  0.08033400    -0.06630
O320        O  0.50381195  0.54839965  0.98260541    -0.88180
H321        H  0.53037989  0.51958068  0.94278027    -0.06460
H322        H  0.49659378  0.65467991  0.05228705    -0.06630
C323        C  0.51532479  0.51885256  0.96901461     0.86920
C324        C  0.44593496  0.53483763  0.08023750     0.87500
C325        C  0.49651973  0.62858321  0.03704702     0.87550
H326        H  0.63008248  0.53981188  0.02164205    -0.06610
O327        O  0.58806439  0.48387059  0.06833704    -0.75640
Mg328      Mg  0.53752611  0.59527609  0.96989082     1.58000
H329        H  0.55672965  0.44143351  0.04748223    -0.06630
C330        C  0.42125931  0.47219577  0.97099269     0.92540
O331        O  0.43644545  0.59392821  0.95066612    -0.82870
C332        C  0.45429730  0.62010039  0.93443773     0.92600
O333        O  0.48138107  0.44752494  0.14002026    -0.82850
Mg334      Mg  0.60581533  0.53729718  0.09928557     1.58180
O335        O  0.42737482  0.50712431  0.96769481    -0.81190
O336        O  0.62596894  0.63783088  0.09453712    -0.82880
C337        C  0.38684640  0.38746969  0.77037282     0.03010
C338        C  0.39426150  0.40488434  0.80462727    -0.13140
C339        C  0.37807057  0.39142531  0.83775473     0.00510
C340        C  0.35506348  0.35963926  0.83636979    -0.11670
C341        C  0.34679602  0.34206460  0.80194464     0.03000
C342        C  0.36261537  0.35688878  0.76898824    -0.11090
H343        H  0.41282695  0.42880392  0.80550391     0.08590
H344        H  0.34371018  0.34891867  0.86229384     0.06120
H345        H  0.35609619  0.34519168  0.74183223     0.05970
C346        C  0.68875898  0.27047983  0.18744825     0.03010
C347        C  0.71956290  0.26901991  0.21140879    -0.13140
C348        C  0.73483977  0.30187826  0.22680203     0.00510
C349        C  0.71743297  0.33629512  0.21834103    -0.11670
C350        C  0.68501445  0.33760871  0.19617579     0.03000
C351        C  0.67107363  0.30459956  0.18038209    -0.11090
H352        H  0.73107553  0.24186947  0.21801953     0.08590
H353        H  0.72856123  0.36226379  0.22906702     0.06120
H354        H  0.64664883  0.30548614  0.16242045     0.05970
C355        C  0.80761197  0.69870564  0.89384982     0.03010
C356        C  0.80766678  0.71978151  0.86098012    -0.13140
C357        C  0.77388342  0.73178977  0.84466617     0.00510
C358        C  0.73985748  0.72225225  0.86228811    -0.11670
C359        C  0.73963718  0.70245022  0.89627266     0.03000
C360        C  0.77383947  0.69105967  0.91186321    -0.11090
H361        H  0.83425599  0.72626415  0.84815075     0.08590
H362        H  0.71350871  0.72913005  0.84909301     0.06120
H363        H  0.77428674  0.67513535  0.93769203     0.05970
O364        O  0.05114896  0.61692665  0.05255259    -0.88470
C365        C  0.06210362  0.51824473  0.10724469     0.87560
Mg366      Mg  0.00235874  0.62848696  0.01979968     1.58150
O367        O  0.11745714  0.52438347  0.02554606    -0.88200
O368        O  0.11175997  0.61121752  0.04413441    -0.75530
C369        C  0.96973933  0.47309053  0.92384604     0.92610
O370        O  0.98715543  0.56491086  0.08953455    -0.75340
O371        O  0.95275118  0.50287420  0.93308922    -0.82850
Mg372      Mg  0.04030960  0.59540853  0.10798339     1.57960
C373        C  0.11789336  0.43475224  0.95192393     0.92530
O374        O  0.09030785  0.62583183  0.13485533    -0.81110
H375        H  0.15569701  0.55091020  0.99450401    -0.06450
C376        C  0.01864037  0.47000778  0.01635833     0.87470
O377        O  0.03271548  0.61136529  0.96553977    -0.75620
O378        O  0.07308993  0.54797314  0.09359545    -0.88380
O379        O  0.12622798  0.44228223  0.98584475    -0.81190
C380        C  0.15575132  0.47075642  0.10296073     0.92650
C381        C  0.12423518  0.61804305  0.14260608     0.92500
Mg382      Mg  0.05665740  0.50171937  0.94831635     1.57950
O383        O  0.00463126  0.46862137  0.92940027    -0.81120
O384        O  0.11107071  0.53220756  0.96474714    -0.75360
O385        O  0.14957277  0.50555601  0.10752479    -0.81200
O386        O  0.00248922  0.64368285  0.12398241    -0.82910
O387        O  0.94319442  0.59042548  0.95094297    -0.81230
C388        C  0.12940503  0.53603355  0.99511203     0.86940
O389        O  0.02439355  0.55073438  0.95994377    -0.88370
O390        O  0.04829604  0.48317521  0.00456884    -0.88480
O391        O  0.98780121  0.48701569  0.01223209    -0.75530
Mg392      Mg  0.12899107  0.55718930  0.07461526     1.57970
O393        O  0.14535474  0.45354344  0.07354722    -0.82910
H394        H  0.08146721  0.65558319  0.02584575    -0.06630
O395        O  0.98362928  0.57259153  0.02894222    -0.88180
H396        H  0.94385626  0.54624207  0.05801670    -0.06460
H397        H  0.05104139  0.58101843  0.92115849    -0.06630
C398        C  0.97017917  0.56105805  0.05860621     0.86920
C399        C  0.08127725  0.62925646  0.04070024     0.87500
C400        C  0.03622250  0.58084927  0.94754122     0.87550
H401        H  0.01911794  0.44383545  0.03146900    -0.06610
O402        O  0.06642265  0.48739124  0.09034020    -0.75640
Mg403      Mg  0.96923505  0.54019324  0.98150105     1.58000
H404        H  0.04752890  0.51865579  0.13375580    -0.06630
C405        C  0.97323141  0.65392161  0.10641803     0.92540
O406        O  0.95154094  0.64178985  0.98493756    -0.82870
C407        C  0.93510151  0.62421902  0.95874751     0.92600
O408        O  0.14176999  0.59231734  0.12547182    -0.82850
Mg409      Mg  0.09634254  0.46903820  0.03659782     1.58180
O410        O  0.96970816  0.64827133  0.07139921    -0.81190
O411        O  0.09123940  0.45104899  0.93497711    -0.82880
C412        C  0.77233849  0.68716715  0.19016160     0.03010
C413        C  0.77085050  0.70982954  0.22203958    -0.13140
C414        C  0.80371236  0.72482898  0.23785628     0.00510
C415        C  0.83824291  0.71664254  0.22069403    -0.11670
C416        C  0.83999686  0.69417877  0.18854785     0.03000
C417        C  0.80691552  0.67940324  0.17351570    -0.11090
H418        H  0.74367453  0.71680449  0.23333695     0.08590
H419        H  0.86387837  0.72816260  0.23176682     0.06120
H420        H  0.80800390  0.66216128  0.14858114     0.05970
C421        C  0.18635637  0.38920488  0.30553249     0.03010
C422        C  0.20960750  0.35770082  0.30675020    -0.13140
C423        C  0.22524535  0.34251744  0.27384414     0.00510
C424        C  0.21749948  0.36021681  0.23944690    -0.11670
C425        C  0.19554601  0.39259433  0.23805873     0.03000
C426        C  0.17984193  0.40687453  0.27102411    -0.11090
H427        H  0.21514530  0.34511284  0.33368860     0.08590
H428        H  0.22800297  0.34886877  0.21341625     0.06120
H429        H  0.16218907  0.43145240  0.26971589     0.05970
C430        C  0.89059251  0.27160392  0.88657339     0.03010
C431        C  0.85881021  0.27010097  0.86371657    -0.13140
C432        C  0.84262029  0.30301555  0.84923267     0.00510
C433        C  0.85931167  0.33765247  0.85810795    -0.11670
C434        C  0.89221481  0.33918840  0.87944584     0.03000
C435        C  0.90744000  0.30614075  0.89388101    -0.11090
H436        H  0.84763129  0.24295411  0.85649483     0.08590
H437        H  0.84697657  0.36360184  0.84864476     0.06120
H438        H  0.93237339  0.30735814  0.91111741     0.05970
O439        O  0.48281926  0.03226584  0.07496899    -0.88470
C440        C  0.58303702  0.04189700  0.12725242     0.87560
Mg441      Mg  0.46738428  0.98327974  0.04514278     1.58150
O442        O  0.57266081  0.09309522  0.04468190    -0.88200
O443        O  0.48767764  0.09238424  0.06591903    -0.75530
C444        C  0.61238226  0.94843233  0.93440833     0.92610
O445        O  0.53064274  0.96843470  0.11405366    -0.75340
O446        O  0.58472617  0.93171124  0.94939533    -0.82850
Mg447      Mg  0.50236829  0.02434783  0.13070012     1.57960
C448        C  0.65152232  0.09813009  0.96398624     0.92530
O449        O  0.47213014  0.07855384  0.15115366    -0.81110
H450        H  0.54609476  0.13260256  0.01534926    -0.06450
C451        C  0.62651115  0.99403385  0.03364935     0.87470
O452        O  0.48310977  0.01148270  0.98956053    -0.75620
O453        O  0.55258366  0.05389522  0.11580745    -0.88380
O454        O  0.64677445  0.10546866  0.99858062    -0.81190
C455        C  0.62828507  0.14102842  0.11334716     0.92650
C456        C  0.48120851  0.11257676  0.15692343     0.92500
Mg457      Mg  0.59145443  0.03331940  0.96740026     1.57950
O458        O  0.62075802  0.98185313  0.94331969    -0.81120
O459        O  0.56275843  0.08803272  0.98448501    -0.75360
O460        O  0.59496958  0.13242914  0.12198256    -0.81200
O461        O  0.44998224  0.99224024  0.14642516    -0.82910
O462        O  0.49790240  0.92634435  0.97297157    -0.81230
C463        C  0.56029234  0.10594444  0.01504395     0.86940
O464        O  0.54322493  0.00261051  0.98326717    -0.88370
O465        O  0.61414829  0.02430420  0.02221450    -0.88480
O466        O  0.60813974  0.96372196  0.03028418    -0.75530
Mg467      Mg  0.54325866  0.10870181  0.09361106     1.57970
O468        O  0.64474241  0.12610266  0.08553537    -0.82910
H469        H  0.44275042  0.06185133  0.04954665    -0.06630
O470        O  0.52260085  0.96150811  0.05336965    -0.88180
H471        H  0.54880077  0.92325943  0.08474752    -0.06460
H472        H  0.51263914  0.02822504  0.94403737    -0.06630
C473        C  0.53439414  0.94979698  0.08384433     0.86920
C474        C  0.46970888  0.06195439  0.06323515     0.87500
C475        C  0.51316597  0.01431475  0.97091283     0.87550
H476        H  0.65333874  0.99344973  0.04759118    -0.06610
O477        O  0.61300928  0.04529270  0.10824691    -0.75640
Mg478      Mg  0.55217394  0.94697532  0.00253543     1.58000
H479        H  0.58405881  0.02739085  0.15379956    -0.06630
C480        C  0.43525426  0.96407080  0.13052522     0.92540
O481        O  0.44999685  0.93313157  0.01225133    -0.82870
C482        C  0.46389970  0.92050967  0.98211427     0.92600
O483        O  0.51127039  0.12631683  0.14416779    -0.82850
Mg484      Mg  0.62867016  0.07419792  0.05243284     1.58180
O485        O  0.44418908  0.95404383  0.09752038    -0.81190
O486        O  0.64087649  0.06761509  0.94937611    -0.82880
C487        C  0.68734577  0.18908463  0.77285199     0.03010
C488        C  0.71321662  0.21848788  0.77058838    -0.13140
C489        C  0.72807496  0.23505924  0.80325241     0.00510
C490        C  0.71772918  0.22046313  0.83842064    -0.11670
C491        C  0.69293358  0.19035395  0.84089584     0.03000
C492        C  0.67744702  0.17523498  0.80824307    -0.11090
H493        H  0.72242753  0.22768232  0.74323668     0.08590
H494        H  0.72837812  0.23261087  0.86405502     0.06120
H495        H  0.65781604  0.15227866  0.81052148     0.05970
C496        C  0.38631875  0.30255477  0.19006197     0.03010
C497        C  0.35408299  0.30430880  0.21230231    -0.13140
C498        C  0.33824866  0.27173998  0.22802117     0.00510
C499        C  0.35567761  0.23706775  0.22085451    -0.11670
C500        C  0.38842709  0.23509628  0.19943570     0.03000
C501        C  0.40336970  0.26784366  0.18396009    -0.11090
H502        H  0.34193066  0.33141796  0.21763199     0.08590
H503        H  0.34446637  0.21151806  0.23240000     0.06120
H504        H  0.42876841  0.26631517  0.16748032     0.05970
C505        C  0.27206407  0.88510854  0.88984883     0.03010
C506        C  0.27077540  0.86281814  0.85774217    -0.13140
C507        C  0.30389370  0.84958039  0.84097399     0.00510
C508        C  0.33842811  0.85871721  0.85776590    -0.11670
C509        C  0.33973695  0.87991343  0.89075069     0.03000
C510        C  0.30647774  0.89340656  0.90642600    -0.11090
H511        H  0.24364555  0.85542704  0.84658981     0.08590
H512        H  0.36449437  0.84928731  0.84567003     0.06120
H513        H  0.30735603  0.91006684  0.93176753     0.05970
O514        O  0.53219141  0.50055850  0.59285731    -0.88470
C515        C  0.54185398  0.44882995  0.49208662     0.87560
Mg516      Mg  0.48321296  0.52980015  0.60888101     1.58150
O517        O  0.59123462  0.53228827  0.50188079    -0.88200
O518        O  0.59196615  0.51124980  0.58723851    -0.75530
C519        C  0.44390966  0.63948297  0.46485441     0.92610
O520        O  0.46835743  0.46083315  0.54532695    -0.75340
O521        O  0.42807552  0.62392600  0.49270110    -0.82850
Mg522      Mg  0.52470326  0.44488065  0.57300764     1.57960
C523        C  0.59361149  0.61321560  0.42344871     0.92530
O524        O  0.57945058  0.42464157  0.60244697    -0.81110
H525        H  0.63059223  0.56238454  0.52777537    -0.06450
C526        C  0.49125182  0.54112334  0.44930786     0.87470
O527        O  0.51037454  0.58559133  0.59262026    -0.75620
O528        O  0.55376744  0.46051464  0.52254715    -0.88380
O529        O  0.60216266  0.57888104  0.42775312    -0.81190
C530        C  0.64068394  0.46477149  0.44608153     0.92650
C531        C  0.61370279  0.42012592  0.59342072     0.92500
Mg532      Mg  0.52958851  0.60806835  0.48368327     1.57950
O533        O  0.47716857  0.63146261  0.45510936    -0.81120
O534        O  0.58515219  0.59224009  0.51160254    -0.75360
O535        O  0.63210513  0.45631794  0.47958140    -0.81200
O536        O  0.49280657  0.42840684  0.62564500    -0.82910
O537        O  0.42455794  0.60081974  0.57919926    -0.81230
C538        C  0.60370034  0.56212431  0.51395870     0.86940
O539        O  0.50015588  0.59169948  0.53258116    -0.88370
O540        O  0.52154871  0.55321121  0.46100768    -0.88480
O541        O  0.46122470  0.54399179  0.46829709    -0.75530
Mg542      Mg  0.60820237  0.48404610  0.53148809     1.57970
O543        O  0.62488309  0.49186555  0.42927283    -0.82910
H544        H  0.56165924  0.52635028  0.63279515    -0.06630
O545        O  0.46066061  0.52115425  0.55395820    -0.88180
H546        H  0.42248536  0.48954287  0.52800148    -0.06460
H547        H  0.52575818  0.63125220  0.56266282    -0.06630
C548        C  0.44920690  0.49069517  0.54211007     0.86920
C549        C  0.56175822  0.51287649  0.60570194     0.87500
C550        C  0.51226925  0.60422898  0.56244409     0.87550
H551        H  0.49039752  0.52709002  0.42251052    -0.06610
O552        O  0.54466698  0.46781554  0.46197446    -0.75640
Mg553      Mg  0.44478138  0.57143246  0.52465608     1.58000
H554        H  0.52792598  0.42204049  0.49117985    -0.06630
C555        C  0.46508477  0.44433625  0.64123303     0.92540
O556        O  0.43291423  0.56191888  0.62706310    -0.82870
C557        C  0.41983802  0.59198689  0.61351060     0.92600
O558        O  0.62740095  0.43435432  0.56393025    -0.82850
Mg559      Mg  0.57216991  0.52411476  0.44584658     1.58180
O560        O  0.45528260  0.47742034  0.63259983    -0.81190
O561        O  0.56233350  0.62640315  0.43366529    -0.82880
C562        C  0.68455366  0.80596418  0.38346431     0.03010
C563        C  0.71674987  0.80619532  0.36134382    -0.13140
C564        C  0.73370829  0.77257410  0.34990220     0.00510
C565        C  0.71750162  0.73842869  0.36090992    -0.11670
C566        C  0.68491376  0.73793523  0.38271554     0.03000
C567        C  0.66849296  0.77182440  0.39373412    -0.11090
H568        H  0.72786629  0.83288293  0.35242605     0.08590
H569        H  0.73036222  0.71217171  0.35312333     0.06120
H570        H  0.64328031  0.77164583  0.41055795     0.05970
C571        C  0.38734929  0.68931432  0.80413971     0.03010
C572        C  0.36591885  0.72198188  0.80475011    -0.13140
C573        C  0.35087620  0.73711753  0.77142381     0.00510
C574        C  0.35788011  0.71838427  0.73731792    -0.11670
C575        C  0.37767550  0.68456233  0.73681645     0.03000
C576        C  0.39318824  0.67083982  0.77016518    -0.11090
H577        H  0.35977849  0.73429026  0.83171234     0.08590
H578        H  0.34723238  0.72924674  0.71113543     0.06120
H579        H  0.40947299  0.64529706  0.76979287     0.05970
C580        C  0.80461018  0.39049194  0.68969948     0.03010
C581        C  0.80636647  0.36674666  0.72081835    -0.13140
C582        C  0.77392980  0.34948700  0.73514345     0.00510
C583        C  0.73945545  0.35656407  0.71721696    -0.11670
C584        C  0.73759529  0.37950512  0.68544053     0.03000
C585        C  0.77019266  0.39665120  0.67203302    -0.11090
H586        H  0.83350409  0.36134819  0.73302059     0.08590
H587        H  0.71391941  0.34403205  0.72740142     0.06120
H588        H  0.76881630  0.41458338  0.64759216     0.05970
O589        O  0.54797399  0.11721729  0.55241499    -0.88470
C590        C  0.55994794  0.01741016  0.60562902     0.87560
Mg591      Mg  0.49866421  0.12873481  0.51964131     1.58150
O592        O  0.61572840  0.02548332  0.52440867    -0.88200
O593        O  0.60880021  0.11200178  0.54479834    -0.75530
C594        C  0.46956529  0.97295499  0.42178382     0.92610
O595        O  0.48461323  0.06418577  0.58898128    -0.75340
O596        O  0.45149532  0.00174486  0.43232163    -0.82850
Mg597      Mg  0.53771648  0.09471615  0.60758714     1.57960
C598        C  0.61772970  0.93733134  0.44888903     0.92530
O599        O  0.58771829  0.12536481  0.63510386    -0.81110
H600        H  0.65353858  0.05350715  0.49418154    -0.06450
C601        C  0.51790138  0.96997969  0.51444884     0.87470
O602        O  0.52903729  0.11239350  0.46522723    -0.75620
O603        O  0.57066207  0.04747367  0.59250202    -0.88380
O604        O  0.62525631  0.94368565  0.48323832    -0.81190
C605        C  0.65369483  0.97033667  0.60099683     0.92650
C606        C  0.62113603  0.11636458  0.64372682     0.92500
Mg607      Mg  0.55554964  0.00375942  0.44678721     1.57950
O608        O  0.50462858  0.97024164  0.42709115    -0.81120
O609        O  0.60923469  0.03494415  0.46388661    -0.75360
O610        O  0.64704136  0.00498715  0.60576067    -0.81200
O611        O  0.49977497  0.14245698  0.62407096    -0.82910
O612        O  0.43961263  0.08935500  0.45087976    -0.81230
C613        C  0.62751078  0.03816250  0.49433532     0.86940
O614        O  0.52204874  0.05164653  0.45943937    -0.88370
O615        O  0.54726666  0.98372587  0.50257991    -0.88480
O616        O  0.48679865  0.98664257  0.51103793    -0.75530
Mg617      Mg  0.62656907  0.05732628  0.57423742     1.57970
O618        O  0.64417970  0.95355158  0.57106332    -0.82910
H619        H  0.57840858  0.15634158  0.52651115    -0.06630
O620        O  0.48057455  0.07240137  0.52848988    -0.88180
H621        H  0.44114991  0.04561283  0.55763145    -0.06460
H622        H  0.54765282  0.08267857  0.42055610    -0.06630
C623        C  0.46740689  0.06054696  0.55815127     0.86920
C624        C  0.57818463  0.12982871  0.54102797     0.87500
C625        C  0.53305503  0.08206428  0.44705596     0.87550
H626        H  0.51892285  0.94363355  0.52922661    -0.06610
O627        O  0.56488673  0.98684579  0.58834440    -0.75640
Mg628      Mg  0.46702822  0.03958247  0.48089137     1.58000
H629        H  0.54519128  0.01724080  0.63204163    -0.06630
C630        C  0.47067256  0.15363213  0.60686889     0.92540
O631        O  0.44740769  0.14148807  0.48418002    -0.82870
C632        C  0.43161812  0.12337265  0.45786809     0.92600
O633        O  0.63886878  0.09081327  0.62651832    -0.82850
Mg634      Mg  0.59521209  0.96953637  0.53437005     1.58180
O635        O  0.46612308  0.14857230  0.57179431    -0.81190
O636        O  0.59133531  0.95415936  0.43204483    -0.82880
C637        C  0.38682352  0.77082468  0.39091629     0.03010
C638        C  0.35712851  0.76914347  0.36541855    -0.13140
C639        C  0.34252428  0.80183990  0.34898936     0.00510
C640        C  0.35958886  0.83629064  0.35742928    -0.11670
C641        C  0.39031743  0.83811747  0.38170844     0.03000
C642        C  0.40368705  0.80534665  0.39860541    -0.11090
H643        H  0.34551652  0.74205278  0.35869885     0.08590
H644        H  0.34921761  0.86193904  0.34525346     0.06120
H645        H  0.42718358  0.80672408  0.41773498     0.05970
C646        C  0.26937573  0.18669884  0.68875215     0.03010
C647        C  0.30377512  0.17965281  0.67128043    -0.13140
C648        C  0.33659387  0.19617287  0.68475372     0.00510
C649        C  0.33526386  0.21938935  0.71629111    -0.11670
C650        C  0.30095016  0.22746926  0.73392552     0.03000
C651        C  0.26811837  0.21111681  0.71941692    -0.11090
H652        H  0.30513495  0.16094300  0.64745220     0.08590
H653        H  0.36125857  0.23028153  0.72728989     0.06120
H654        H  0.24126771  0.21694447  0.73196371     0.05970
C655        C  0.68445894  0.88712211  0.80221632     0.03010
C656        C  0.70874337  0.85642754  0.80403714    -0.13140
C657        C  0.72399069  0.84037913  0.77134034     0.00510
C658        C  0.71528016  0.85673675  0.73650144    -0.11670
C659        C  0.69229234  0.88835572  0.73442337     0.03000
C660        C  0.67641222  0.90297664  0.76715914    -0.11090
H661        H  0.71648913  0.84598646  0.83139005     0.08590
H662        H  0.72646779  0.84537935  0.71078694     0.06120
H663        H  0.65765097  0.92665599  0.76516430     0.05970
C664        C  0.29910425  0.25307047  0.76701948     0.03010
C665        C  0.27059213  0.24922716  0.79382837    -0.13140
C666        C  0.26635398  0.27503963  0.82315032     0.00510
C667        C  0.29214058  0.30455046  0.82614931    -0.11670
C668        C  0.32123507  0.30899244  0.80004571     0.03000
C669        C  0.32461801  0.28267166  0.77093123    -0.11090
H670        H  0.25093850  0.22652022  0.79131845     0.08590
H671        H  0.28892890  0.32464720  0.84843560     0.06120
H672        H  0.34676936  0.28568428  0.75068240     0.05970
C673        C  0.70062604  0.94325144  0.69283758    -0.26440
C674        C  0.68587139  0.90734069  0.69819832    -0.14510
C675        C  0.66405478  0.89098321  0.66969926     0.36120
C676        C  0.65613810  0.91133612  0.63723383    -0.25890
C677        C  0.66909807  0.94815187  0.63254150    -0.15130
C678        C  0.69259305  0.96390120  0.66026566     0.37200
N679        N  0.70877154  0.00031515  0.65512204    -0.89380
H680        H  0.71789991  0.95547447  0.71456693     0.18320
H681        H  0.63796123  0.89887991  0.61640037     0.18310
N682        N  0.64798336  0.85455442  0.67379724    -0.88410
H683        H  0.72784797  0.00612880  0.67654053     0.35680
H684        H  0.68747239  0.02000471  0.65793739     0.40780
H685        H  0.63178378  0.85422345  0.69815706     0.40400
H686        H  0.66952293  0.83507909  0.67669896     0.35290
C687        C  0.42678419  0.14700207  0.65917326    -0.26440
C688        C  0.43940072  0.16883976  0.62906724    -0.14510
C689        C  0.41916093  0.20130197  0.61883637     0.36120
C690        C  0.38599306  0.20992794  0.63803315    -0.25890
C691        C  0.37277508  0.18712670  0.66715083    -0.15130
C692        C  0.39362254  0.15540952  0.67807643     0.37200
N693        N  0.38186146  0.13077102  0.70766687    -0.89380
H694        H  0.44196271  0.12195983  0.66700394     0.18320
H695        H  0.37013792  0.23442329  0.62986423     0.18310
N696        N  0.43128084  0.22605946  0.58950603    -0.88410
H697        H  0.37610784  0.10475831  0.69566157     0.35680
H698        H  0.35721307  0.13975851  0.72038805     0.40780
H699        H  0.45717920  0.21806637  0.57876436     0.40400
H700        H  0.43548278  0.25237822  0.60149385     0.35290
C701        C  0.44636818  0.87868493  0.37751391    -0.26440
C702        C  0.40915030  0.87421508  0.38888496    -0.14510
C703        C  0.39115003  0.90359504  0.40806789     0.36120
C704        C  0.41085896  0.93632259  0.41617468    -0.25890
C705        C  0.44874364  0.94040374  0.40640895    -0.15130
C706        C  0.46653411  0.91129071  0.38621017     0.37200
N707        N  0.50493072  0.91454516  0.37480602    -0.89380
H708        H  0.46004017  0.85613830  0.36259116     0.18320
H709        H  0.39681000  0.95794608  0.43206867     0.18310
N710        N  0.35358474  0.90019889  0.42154102    -0.88410
H711        H  0.51197802  0.89302044  0.35631454     0.35680
H712        H  0.52140283  0.91022760  0.39858606     0.40780
H713        H  0.35187275  0.87643874  0.43849436     0.40400
H714        H  0.33560592  0.89687479  0.39875444     0.35290
C715        C  0.61678113  0.88501817  0.40382505    -0.26440
C716        C  0.63777919  0.90715174  0.42868173    -0.14510
C717        C  0.67566216  0.89755665  0.43554940     0.36120
C718        C  0.69005325  0.86449513  0.42008974    -0.25890
C719        C  0.66831490  0.84158584  0.39675118    -0.15130
C720        C  0.63152469  0.85268765  0.38756905     0.37200
N721        N  0.60846307  0.83240471  0.36157296    -0.89380
H722        H  0.58805118  0.89228674  0.39762735     0.18320
H723        H  0.71858237  0.85650793  0.42650266     0.18310
N724        N  0.70044182  0.92052289  0.45743875    -0.88410
H725        H  0.58641688  0.82055005  0.37666620     0.35680
H726        H  0.62292041  0.81069561  0.34856709     0.40780
H727        H  0.68860105  0.94651180  0.46309384     0.40400
H728        H  0.72372720  0.92654166  0.44080335     0.35290
C729        C  0.38236735  0.60218460  0.67071690    -0.26440
C730        C  0.40103897  0.61776293  0.63986983    -0.14510
C731        C  0.40680035  0.65683238  0.63851810     0.36120
C732        C  0.39669440  0.67884805  0.66962449    -0.25890
C733        C  0.38142831  0.66243311  0.70189519    -0.15130
C734        C  0.37226590  0.62410124  0.70158148     0.37200
N735        N  0.35374684  0.60740216  0.73317577    -0.89380
H736        H  0.37716413  0.57236067  0.67147518     0.18320
H737        H  0.40302445  0.70844783  0.66967111     0.18310
N738        N  0.42491872  0.67370164  0.60680293    -0.88410
H739        H  0.34933392  0.57887951  0.72867445     0.35680
H740        H  0.32734836  0.61971997  0.73543218     0.40780
H741        H  0.45256780  0.66425231  0.60633024     0.40400
H742        H  0.42617534  0.70271286  0.60996599     0.35290
C743        C  0.41099013  0.69996298  0.46631381    -0.26440
C744        C  0.42474615  0.67011337  0.44487699    -0.14510
C745        C  0.42442967  0.67285047  0.40527338     0.36120
C746        C  0.41183086  0.70589083  0.38835882    -0.25890
C747        C  0.39960651  0.73629703  0.40991318    -0.15130
C748        C  0.39847951  0.73306671  0.44925499     0.37200
N749        N  0.38483704  0.76350121  0.47168578    -0.89380
H750        H  0.41140272  0.69800194  0.49661030     0.18320
H751        H  0.41188665  0.70797765  0.35806923     0.18310
N752        N  0.43571959  0.64258404  0.38135102    -0.88410
H753        H  0.38613055  0.75676221  0.50015354     0.35680
H754        H  0.35657436  0.76723677  0.46523160     0.40780
H755        H  0.44101741  0.61817465  0.39642071     0.40400
H756        H  0.46055728  0.65044420  0.36810693     0.35290
C757        C  0.63556741  0.66401236  0.43993424    -0.26440
C758        C  0.62210382  0.64029246  0.41180696    -0.14510
C759        C  0.63327944  0.64597281  0.37429767     0.36120
C760        C  0.65570971  0.67706787  0.36571903    -0.25890
C761        C  0.66731742  0.70215409  0.39378819    -0.15130
C762        C  0.65845867  0.69440171  0.43161324     0.37200
N763        N  0.67229909  0.71641996  0.46231757    -0.89380
H764        H  0.62760486  0.65920081  0.46885465     0.18320
H765        H  0.66263202  0.68266051  0.33670218     0.18310
N766        N  0.62102936  0.62222303  0.34424024    -0.88410
H767        H  0.64982479  0.73140583  0.47345800     0.35680
H768        H  0.69260413  0.73554131  0.45382330     0.40780
H769        H  0.60440927  0.60036845  0.35409006     0.40400
H770        H  0.64480291  0.60991947  0.33251488     0.35290
C771        C  0.70016667  0.37070319  0.62777905    -0.26440
C772        C  0.70212067  0.38419649  0.66457722    -0.14510
C773        C  0.67138836  0.40399161  0.67952869     0.36120
C774        C  0.64049627  0.41184498  0.65669358    -0.25890
C775        C  0.63984386  0.40081799  0.61894959    -0.15130
C776        C  0.66933829  0.37839525  0.60490289     0.37200
N777        N  0.66909984  0.36322010  0.56761745    -0.89380
H778        H  0.72327820  0.35473001  0.61642221     0.18320
H779        H  0.61829907  0.42930057  0.66767378     0.18310
N780        N  0.67190607  0.41868894  0.71683271    -0.88410
H781        H  0.68931606  0.37740672  0.55197271     0.35680
H782        H  0.64330314  0.36698611  0.55448009     0.40780
H783        H  0.69543162  0.43576496  0.71977039     0.40400
H784        H  0.67410981  0.39648797  0.73568162     0.35290
C785        C  0.67073363  0.13226473  0.73644809    -0.26440
C786        C  0.67163621  0.17137494  0.73851777    -0.14510
C787        C  0.65604216  0.19251758  0.70889072     0.36120
C788        C  0.64019779  0.17391634  0.67789333    -0.25890
C789        C  0.63914601  0.13473303  0.67614935    -0.15130
C790        C  0.65410180  0.11369646  0.70633653     0.37200
N791        N  0.65099299  0.07371599  0.70896897    -0.89380
H792        H  0.68235099  0.11572491  0.75907379     0.18320
H793        H  0.62826160  0.19003053  0.65513569     0.18310
N794        N  0.65550167  0.23263463  0.71075146    -0.88410
H795        H  0.67794680  0.06257962  0.70749043     0.35680
H796        H  0.63516038  0.06206241  0.68745432     0.40780
H797        H  0.63851102  0.24021824  0.73331820     0.40400
H798        H  0.64315618  0.24389914  0.68671991     0.35290
C799        C  0.43595746  0.91557095  0.91921933    -0.26440
C800        C  0.43817709  0.90170878  0.95593346    -0.14510
C801        C  0.41033637  0.87678167  0.96892151     0.36120
C802        C  0.37924396  0.86950595  0.94631001    -0.25890
C803        C  0.37544425  0.88580726  0.91078435    -0.15130
C804        C  0.40469469  0.90842901  0.89656789     0.37200
N805        N  0.40289862  0.92630732  0.86050709    -0.89380
H806        H  0.45709447  0.93482914  0.90918327     0.18320
H807        H  0.35730490  0.85151006  0.95696426     0.18310
N808        N  0.41220183  0.85917106  0.00512568    -0.88410
H809        H  0.40310987  0.95517590  0.86496944     0.35680
H810        H  0.37797122  0.92047406  0.84658002     0.40780
H811        H  0.43780516  0.86431315  0.01815749     0.40400
H812        H  0.41143622  0.83028535  0.00082666     0.35290
C813        C  0.65113364  0.95471100  0.87725516    -0.26440
C814        C  0.63399826  0.93069171  0.90340488    -0.14510
C815        C  0.63612603  0.89149833  0.89723547     0.36120
C816        C  0.65192597  0.87817389  0.86370201    -0.25890
C817        C  0.66779733  0.90252399  0.83717797    -0.15130
C818        C  0.66826216  0.94106647  0.84478673     0.37200
N819        N  0.68657712  0.96654965  0.81986906    -0.89380
H820        H  0.65067968  0.98468658  0.88147977     0.18320
H821        H  0.65216150  0.84833349  0.85854327     0.18310
N822        N  0.62336403  0.86444601  0.92420317    -0.88410
H823        H  0.66693450  0.98624057  0.81087376     0.35680
H824        H  0.70729766  0.98063635  0.83493987     0.40780
H825        H  0.62034181  0.87661314  0.95053133     0.40400
H826        H  0.64490981  0.84507966  0.92814230     0.35290
C827        C  0.63809158  0.14987348  0.92170427    -0.26440
C828        C  0.66525600  0.12725633  0.93859512    -0.14510
C829        C  0.70276297  0.12937391  0.92643295     0.36120
C830        C  0.71160215  0.15259344  0.89599460    -0.25890
C831        C  0.68379473  0.17326568  0.87742074    -0.15130
C832        C  0.64678620  0.17282571  0.89128340     0.37200
N833        N  0.61727091  0.19471260  0.87493591    -0.89380
H834        H  0.60931846  0.14834025  0.93114465     0.18320
H835        H  0.73999893  0.15286081  0.88542193     0.18310
N836        N  0.73202722  0.10734618  0.94301778    -0.88410
H837        H  0.59841519  0.17627797  0.86232742     0.35680
H838        H  0.62714361  0.21262053  0.85410456     0.40780
H839        H  0.72206930  0.09151458  0.96545259     0.40400
H840        H  0.75170068  0.12583764  0.95421406     0.35290
C841        C  0.44605513  0.19782738  0.20767148    -0.26440
C842        C  0.40904553  0.19947669  0.19481631    -0.14510
C843        C  0.39425553  0.16884309  0.17460908     0.36120
C844        C  0.41739940  0.13844522  0.16583788    -0.25890
C845        C  0.45530918  0.13842776  0.17602617    -0.15130
C846        C  0.46927670  0.16777470  0.19831588     0.37200
N847        N  0.50747304  0.16774930  0.21040200    -0.89380
H848        H  0.45753579  0.22091717  0.22360371     0.18320
H849        H  0.40647605  0.11625243  0.14832416     0.18310
N850        N  0.35686116  0.16903504  0.16027240    -0.88410
H851        H  0.50780241  0.16909506  0.23965140     0.35680
H852        H  0.52027959  0.19191609  0.20010190     0.40780
H853        H  0.35327242  0.19290601  0.14377650     0.40400
H854        H  0.33824317  0.17019282  0.18273855     0.35290
C855        C  0.91144990  0.38564825  0.92653456    -0.26440
C856        C  0.91007339  0.37536114  0.88868798    -0.14510
C857        C  0.92756356  0.39851097  0.86149694     0.36120
C858        C  0.94607896  0.43115821  0.87320389    -0.25890
C859        C  0.94760918  0.44090814  0.91115256    -0.15130
C860        C  0.92996383  0.41816278  0.93803465     0.37200
N861        N  0.93210871  0.42756378  0.97714288    -0.89380
H862        H  0.89833961  0.36785513  0.94729648     0.18320
H863        H  0.96002610  0.44855495  0.85266585     0.18310
N864        N  0.92812738  0.38947180  0.82223695    -0.88410
H865        H  0.91868744  0.40732917  0.99342268     0.35680
H866        H  0.91736476  0.45247033  0.98106538     0.40780
H867        H  0.91476988  0.36420523  0.81666352     0.40400
H868        H  0.95604468  0.38577887  0.81442938     0.35290
C869        C  0.87949287  0.69825792  0.13155459    -0.26440
C870        C  0.87604821  0.68752064  0.16919502    -0.14510
C871        C  0.90606657  0.66874062  0.18669712     0.36120
C872        C  0.93825248  0.66046030  0.16613580    -0.25890
C873        C  0.94117261  0.66947582  0.12788265    -0.15130
C874        C  0.91147094  0.68920176  0.11052547     0.37200
N875        N  0.91346103  0.69974141  0.07169961    -0.89380
H876        H  0.85650482  0.71280554  0.11817279     0.18320
H877        H  0.96035014  0.64491528  0.17986784     0.18310
N878        N  0.90383439  0.65554184  0.22452506    -0.88410
H879        H  0.89173680  0.71809816  0.06494969     0.35680
H880        H  0.90860108  0.67571866  0.05579116     0.40780
H881        H  0.87999631  0.63886708  0.22721876     0.40400
H882        H  0.90155718  0.67833732  0.24257322     0.35290
C883        C  0.20727956  0.44358979  0.19219334    -0.26440
C884        C  0.18796580  0.41087091  0.20175635    -0.14510
C885        C  0.16129599  0.39605084  0.17691413     0.36120
C886        C  0.15328803  0.41517522  0.14353935    -0.25890
C887        C  0.17138228  0.44883929  0.13445319    -0.15130
C888        C  0.19970249  0.46256196  0.15861685     0.37200
N889        N  0.22211469  0.49463965  0.14961834    -0.89380
H890        H  0.22848987  0.45441640  0.21096927     0.18320
H891        H  0.13141698  0.40464853  0.12536924     0.18310
N892        N  0.14120363  0.36261636  0.18654785    -0.88410
H893        H  0.21551297  0.51571841  0.16870182     0.35680
H894        H  0.21665511  0.50467847  0.12274062     0.40780
H895        H  0.16032108  0.34054265  0.18678168     0.40400
H896        H  0.12147119  0.35622347  0.16591249     0.35290
C897        C  0.84458454  0.64183754  0.90572040    -0.26440
C898        C  0.84222232  0.68083767  0.90739840    -0.14510
C899        C  0.87159830  0.70154287  0.92339129     0.36120
C900        C  0.90237624  0.68247203  0.93872792    -0.25890
C901        C  0.90434883  0.64317006  0.93824498    -0.15130
C902        C  0.87511535  0.62265821  0.92110800     0.37200
N903        N  0.87554709  0.58247277  0.92070220    -0.89380
H904        H  0.82178578  0.62621474  0.89326873     0.18320
H905        H  0.92458684  0.69838687  0.95180340     0.18310
N906        N  0.86923109  0.74157374  0.92565399    -0.88410
H907        H  0.85256958  0.57199289  0.90595501     0.35680
H908        H  0.87245485  0.57336144  0.94835690     0.40780
H909        H  0.87074178  0.75213297  0.89841954     0.40400
H910        H  0.89233542  0.75238659  0.93994809     0.35290
C911        C  0.67211914  0.19475796  0.11560788    -0.26440
C912        C  0.64685076  0.17139935  0.13459558    -0.14510
C913        C  0.63730398  0.17969994  0.17224602     0.36120
C914        C  0.65201035  0.21189356  0.18924344    -0.25890
C915        C  0.67544976  0.23603108  0.16936914    -0.15130
C916        C  0.68642782  0.22708883  0.13263508     0.37200
N917        N  0.71145740  0.25133808  0.11260448    -0.89380
H918        H  0.67960908  0.18860612  0.08686371     0.18320
H919        H  0.64444401  0.21874776  0.21781929     0.18310
N920        N  0.61305549  0.15546877  0.19326465    -0.88410
H921        H  0.71644227  0.24102839  0.08566950     0.35680
H922        H  0.73713658  0.25098144  0.12659461     0.40780
H923        H  0.58577588  0.16017003  0.18394424     0.40400
H924        H  0.61311418  0.16293846  0.22157724     0.35290
C925        C  0.40634482  0.43428516  0.67693807    -0.26440
C926        C  0.44427900  0.42540871  0.67172337    -0.14510
C927        C  0.46258886  0.40270211  0.69845479     0.36120
C928        C  0.44293511  0.39077497  0.73036706    -0.25890
C929        C  0.40539543  0.40050982  0.73587630    -0.15130
C930        C  0.38662808  0.42212916  0.70856284     0.37200
N931        N  0.34803837  0.43288038  0.71216536    -0.89380
H932        H  0.39202421  0.45165977  0.65661110     0.18320
H933        H  0.45702596  0.37395078  0.75131056     0.18310
N934        N  0.50145140  0.39339690  0.69421664    -0.88410
H935        H  0.34711595  0.46202447  0.71392054     0.35680
H936        H  0.33612950  0.42278405  0.73682494     0.40780
H937        H  0.50361212  0.37497485  0.67161107     0.40400
H938        H  0.51115808  0.37877557  0.71764087     0.35290
C939        C  0.69234422  0.66824654  0.12283024    -0.26440
C940        C  0.67269382  0.63985052  0.14168804    -0.14510
C941        C  0.68486497  0.62882310  0.17774144     0.36120
C942        C  0.71713595  0.64529855  0.19319206    -0.25890
C943        C  0.73740891  0.67253187  0.17350492    -0.15130
C944        C  0.72435140  0.68470606  0.13816147     0.37200
N945        N  0.74229446  0.71399413  0.11722149    -0.89380
H946        H  0.68332333  0.67732511  0.09531168     0.18320
H947        H  0.72695007  0.63644103  0.22051493     0.18310
N948        N  0.66463900  0.60096764  0.19848193    -0.88410
H949        H  0.75369303  0.70202623  0.09308591     0.35680
H950        H  0.76420776  0.72630810  0.13200838     0.40780
H951        H  0.63822638  0.61193120  0.20448876     0.40400
H952        H  0.67755844  0.59582135  0.22425024     0.35290
C953        C  0.70186984  0.65327542  0.92688456    -0.26440
C954        C  0.70411958  0.69025245  0.91424417    -0.14510
C955        C  0.67331515  0.71441751  0.92000950     0.36120
C956        C  0.64118473  0.70081543  0.93853725    -0.25890
C957        C  0.63985782  0.66406688  0.95223138    -0.15130
C958        C  0.67069355  0.63999980  0.94602007     0.37200
N959        N  0.67178861  0.60186697  0.95858070    -0.89380
H960        H  0.72484437  0.63416126  0.92194219     0.18320
H961        H  0.61755146  0.71916120  0.94321403     0.18310
N962        N  0.67504337  0.75269345  0.90794217    -0.88410
H963        H  0.67327300  0.58480604  0.93493262     0.35680
H964        H  0.64743538  0.59438632  0.97252759     0.40780
H965        H  0.69612865  0.76585604  0.92334009     0.40400
H966        H  0.65013055  0.76659057  0.91427063     0.35290
C967        C  0.42647290  0.40045723  0.17603628    -0.26440
C968        C  0.43518789  0.39981104  0.13767691    -0.14510
C969        C  0.42697462  0.36718927  0.11671483     0.36120
C970        C  0.41073255  0.33637714  0.13436838    -0.25890
C971        C  0.40230377  0.33682296  0.17271933    -0.15130
C972        C  0.41011648  0.36933880  0.19381200     0.37200
N973        N  0.40246163  0.37029650  0.23332264    -0.89380
H974        H  0.43302689  0.42514165  0.19232716     0.18320
H975        H  0.40486089  0.31161246  0.11791531     0.18310
N976        N  0.43632729  0.36369009  0.07784698    -0.88410
H977        H  0.40972002  0.39623943  0.24463407     0.35680
H978        H  0.41963695  0.35045507  0.24620691     0.40780
H979        H  0.46491050  0.36876959  0.07453216     0.40400
H980        H  0.42109312  0.38336713  0.06253429     0.35290
C981        C  0.66245411  0.43632979  0.16455939    -0.26440
C982        C  0.62449681  0.43945276  0.17453622    -0.14510
C983        C  0.60770984  0.41000390  0.19524204     0.36120
C984        C  0.62799422  0.37700011  0.20146899    -0.25890
C985        C  0.66523714  0.37340593  0.18977063    -0.15130
C986        C  0.68295171  0.40367358  0.17194588     0.37200
N987        N  0.72120681  0.40054721  0.16002828    -0.89380
H988        H  0.67573737  0.45862878  0.14894502     0.18320
H989        H  0.61471219  0.35406598  0.21617195     0.18310
N990        N  0.57055778  0.41251914  0.21051575    -0.88410
H991        H  0.73011923  0.42531655  0.14733431     0.35680
H992        H  0.72244134  0.37976087  0.13949676     0.40780
H993        H  0.56107476  0.44005919  0.21030442     0.40400
H994        H  0.57228287  0.40590959  0.23900112     0.35290
C995        C  0.42840009  0.69315866  0.86051030    -0.26440
C996        C  0.40213476  0.67314005  0.83933645    -0.14510
C997        C  0.39110173  0.63726288  0.85108338     0.36120
C998        C  0.40773463  0.62140307  0.88292003    -0.25890
C999        C  0.43553617  0.64043129  0.90328062    -0.15130
C1000       C  0.44564172  0.67706755  0.89215523     0.37200
N1001       N  0.47292819  0.69799405  0.91298590    -0.89380
H1002       H  0.43644101  0.72092935  0.85148766     0.18320
H1003       H  0.39966719  0.59341041  0.89116439     0.18310
N1004       N  0.36326247  0.61695051  0.83034357    -0.88410
H1005       H  0.47429196  0.72549352  0.90318919     0.35680
H1006       H  0.49910035  0.68628451  0.90743382     0.40780
H1007       H  0.33818608  0.63182367  0.83226354     0.40400
H1008       H  0.35844011  0.59080423  0.84248104     0.35290
C1009       C  0.40890228  0.41236821  0.93751727    -0.26440
C1010       C  0.40413148  0.45137736  0.93920822    -0.14510
C1011       C  0.38742931  0.46993298  0.90840383     0.36120
C1012       C  0.37845644  0.44952871  0.87598488    -0.25890
C1013       C  0.38528273  0.41099356  0.87368454    -0.15130
C1014       C  0.40002870  0.39207434  0.90502081     0.37200
N1015       N  0.40749202  0.35264316  0.90318542    -0.89380
H1016       H  0.42159460  0.39778194  0.96087126     0.18320
H1017       H  0.36642513  0.46383742  0.85208943     0.18310
N1018       N  0.38021614  0.50943831  0.90975285    -0.88410
H1019       H  0.41830523  0.34296853  0.92861287     0.35680
H1020       H  0.42830334  0.34849585  0.88306438     0.40780
H1021       H  0.36013298  0.51399095  0.93051645     0.40400
H1022       H  0.36852288  0.51874323  0.88457249     0.35290
C1023       C  0.36753231  0.19445223  0.41071905    -0.26440
C1024       C  0.33497386  0.17295417  0.40613928    -0.14510
C1025       C  0.33587668  0.13474416  0.41555081     0.36120
C1026       C  0.36838061  0.11920590  0.43084819    -0.25890
C1027       C  0.40054557  0.14089538  0.43681728    -0.15130
C1028       C  0.40052910  0.17884113  0.42527285     0.37200
N1029       N  0.43324670  0.20215344  0.42716049    -0.89380
H1030       H  0.36737000  0.22372869  0.40297695     0.18320
H1031       H  0.36802760  0.09006462  0.43913087     0.18310
N1032       N  0.30390219  0.11145453  0.40932597    -0.88410
H1033       H  0.43873692  0.21172043  0.40003692     0.35680
H1034       H  0.45687285  0.18687705  0.43474450     0.40780
H1035       H  0.29602618  0.09980639  0.43499540     0.40400
H1036       H  0.31181337  0.08967231  0.39150992     0.35290
C1037       C  0.90637651  0.92099403  0.43849810    -0.26440
C1038       C  0.89844765  0.95941230  0.43752282    -0.14510
C1039       C  0.87793064  0.97421058  0.40718294     0.36120
C1040       C  0.86887582  0.95107156  0.37684928    -0.25890
C1041       C  0.87984732  0.91345496  0.37615120    -0.15130
C1042       C  0.89760522  0.89783289  0.40782911     0.37200
N1043       N  0.90854662  0.85919303  0.40787933    -0.89380
H1044       H  0.92214165  0.90965964  0.46180454     0.18320
H1045       H  0.85436239  0.96275600  0.35290051     0.18310
N1046       N  0.86763685  0.01305370  0.40672467    -0.88410
H1047       H  0.92133304  0.85216525  0.43326221     0.35680
H1048       H  0.92873604  0.85566611  0.38701742     0.40780
H1049       H  0.84920912  0.01752371  0.42899174     0.40400
H1050       H  0.85302137  0.01960253  0.38221615     0.35290
C1051       C  0.09643671  0.90054775  0.69244429    -0.26440
C1052       C  0.11263121  0.93358817  0.67864381    -0.14510
C1053       C  0.15207095  0.93669120  0.67807020     0.36120
C1054       C  0.17405195  0.90534341  0.68756003    -0.25890
C1055       C  0.15742433  0.87113159  0.69742688    -0.15130
C1056       C  0.11833166  0.86956429  0.70185427     0.37200
N1057       N  0.10063517  0.83627830  0.71539093    -0.89380
H1058       H  0.06630095  0.89802943  0.69433362     0.18320
H1059       H  0.20416598  0.90696690  0.68492260     0.18310
N1060       N  0.16973336  0.97071638  0.66605306    -0.88410
H1061       H  0.08154144  0.82725508  0.69513628     0.35680
H1062       H  0.08564570  0.84309113  0.73957186     0.40780
H1063       H  0.16445037  0.97386096  0.63742259     0.40400
H1064       H  0.19875393  0.96877665  0.66889410     0.35290
C1065       C  0.16995565  0.16574027  0.65650608    -0.26440
C1066       C  0.17135108  0.12679576  0.65215323    -0.14510
C1067       C  0.20508625  0.10758536  0.66016459     0.36120
C1068       C  0.23624493  0.12786123  0.67238807    -0.25890
C1069       C  0.23507565  0.16684889  0.67629308    -0.15130
C1070       C  0.20145581  0.18602919  0.66844360     0.37200
N1071       N  0.19971914  0.22603957  0.67154301    -0.89380
H1072       H  0.14439582  0.18046718  0.64957148     0.18320
H1073       H  0.26193729  0.11295638  0.67839902     0.18310
N1074       N  0.20975409  0.06809288  0.65420889    -0.88410
H1075       H  0.17297523  0.23575190  0.66485193     0.35680
H1076       H  0.21793505  0.23725890  0.65160720     0.40780
H1077       H  0.18612001  0.05557050  0.64269459     0.40400
H1078       H  0.21425099  0.05565441  0.68032351     0.35290
C1079       C  0.19485214  0.20954582  0.45115207    -0.26440
C1080       C  0.19767203  0.19515334  0.41473028    -0.14510
C1081       C  0.16860393  0.17245303  0.40057874     0.36120
C1082       C  0.13863402  0.16279125  0.42385118    -0.25890
C1083       C  0.13756908  0.17451340  0.46135025    -0.15130
C1084       C  0.16533989  0.19933089  0.47463357     0.37200
N1085       N  0.16451037  0.21429970  0.51185444    -0.89380
H1086       H  0.21677825  0.22742386  0.46202090     0.18320
H1087       H  0.11762857  0.14359141  0.41343478     0.18310
N1088       N  0.17008909  0.15670317  0.36373506    -0.88410
H1089       H  0.16755692  0.19261548  0.53117222     0.35680
H1090       H  0.13859843  0.22713054  0.51605163     0.40780
H1091       H  0.19487647  0.14145601  0.36112979     0.40400
H1092       H  0.17036812  0.17842682  0.34421290     0.35290
C1093       C  0.91192720  0.87398541  0.61045463    -0.26440
C1094       C  0.92134981  0.90552703  0.63177351    -0.14510
C1095       C  0.91715300  0.90444739  0.67118642     0.36120
C1096       C  0.90477358  0.87143770  0.68824861    -0.25890
C1097       C  0.89675746  0.83942267  0.66701076    -0.15130
C1098       C  0.89979963  0.84085776  0.62766411     0.37200
N1099       N  0.89082894  0.80860321  0.60541628    -0.89380
H1100       H  0.91550610  0.87474109  0.58031482     0.18320
H1101       H  0.90188469  0.87060810  0.71845823     0.18310
N1102       N  0.92441366  0.93627949  0.69464611    -0.88410
H1103       H  0.89490831  0.81418284  0.57696489     0.35680
H1104       H  0.86232965  0.80314649  0.60885525     0.40780
H1105       H  0.93064264  0.96010503  0.67900695     0.40400
H1106       H  0.94782298  0.93013592  0.71106868     0.35290
C1107       C  0.12707310  0.67173224  0.18730321    -0.26440
C1108       C  0.14287676  0.63824997  0.17390347    -0.14510
C1109       C  0.17441563  0.62313248  0.19266219     0.36120
C1110       C  0.18863005  0.64127022  0.22442698    -0.25890
C1111       C  0.17204795  0.67382101  0.23816230    -0.15130
C1112       C  0.14145038  0.68972907  0.21922430     0.37200
N1113       N  0.12431661  0.72323690  0.23328473    -0.89380
H1114       H  0.10301442  0.68361452  0.17322959     0.18320
H1115       H  0.21228589  0.62943850  0.23925753     0.18310
N1116       N  0.19114191  0.58870660  0.18050449    -0.88410
H1117       H  0.10140471  0.73072326  0.21671279     0.35680
H1118       H  0.14377612  0.74486975  0.23074285     0.40780
H1119       H  0.17195039  0.56735478  0.18594497     0.40400
H1120       H  0.21492664  0.58255832  0.19638583     0.35290
C1121       C  0.71188956  0.42558376  0.37603558    -0.26440
C1122       C  0.73624170  0.40663911  0.40042572    -0.14510
C1123       C  0.72731816  0.40461555  0.43872830     0.36120
C1124       C  0.69561477  0.42295765  0.45226948    -0.25890
C1125       C  0.67192522  0.44356938  0.42841978    -0.15130
C1126       C  0.68003275  0.44412324  0.38951530     0.37200
N1127       N  0.65660032  0.46285380  0.36295015    -0.89380
H1128       H  0.71819990  0.42681777  0.34637373     0.18320
H1129       H  0.69010831  0.42149208  0.48207633     0.18310
N1130       N  0.75016952  0.38352018  0.46404117    -0.88410
H1131       H  0.65681197  0.49147063  0.36866747     0.35680
H1132       H  0.62937882  0.45259194  0.36564771     0.40780
H1133       H  0.73345889  0.36310931  0.47662292     0.40400
H1134       H  0.75966890  0.40153902  0.48503494     0.35290
C1135       C  0.17460313  0.70271148  0.68591949    -0.26440
C1136       C  0.17844517  0.73633999  0.66591885    -0.14510
C1137       C  0.17117241  0.73654792  0.62710527     0.36120
C1138       C  0.15896310  0.70382379  0.60935630    -0.25890
C1139       C  0.15359439  0.67071888  0.62962797    -0.15130
C1140       C  0.16233973  0.66986249  0.66828966     0.37200
N1141       N  0.15898249  0.63648292  0.69048844    -0.89380
H1142       H  0.18043350  0.70210415  0.71570225     0.18320
H1143       H  0.15224232  0.70468799  0.57975032     0.18310
N1144       N  0.17620980  0.76993534  0.60555960    -0.88410
H1145       H  0.18558382  0.63004697  0.70077932     0.35680
H1146       H  0.15087283  0.61363599  0.67425196     0.40780
H1147       H  0.19552585  0.76430582  0.58433623     0.40400
H1148       H  0.15068284  0.77657746  0.59293408     0.35290
C1149       C  0.89886606  0.67187611  0.68159270    -0.26440
C1150       C  0.91530026  0.70421331  0.69659398    -0.14510
C1151       C  0.95407881  0.70409567  0.70465678     0.36120
C1152       C  0.97588627  0.67363245  0.69357875    -0.25890
C1153       C  0.96004801  0.64249244  0.67568320    -0.15130
C1154       C  0.92078297  0.64076774  0.67140143     0.37200
N1155       N  0.90354755  0.60866469  0.65449982    -0.89380
H1156       H  0.86908946  0.67164005  0.67603873     0.18320
H1157       H  0.00582838  0.67481025  0.69811906     0.18310
N1158       N  0.97233371  0.73423704  0.72401247    -0.88410
H1159       H  0.87474708  0.61273678  0.65164652     0.35680
H1160       H  0.90682642  0.58636731  0.67312261     0.40780
H1161       H  0.95327799  0.75352629  0.73473537     0.40400
H1162       H  0.98941608  0.74813876  0.70477985     0.35290
C1163       C  0.16701748  0.42054884  0.40579830    -0.26440
C1164       C  0.12814191  0.42544633  0.40481136    -0.14510
C1165       C  0.10848474  0.41858842  0.37127721     0.36120
C1166       C  0.12819518  0.40711406  0.33926207    -0.25890
C1167       C  0.16712686  0.40221447  0.34006697    -0.15130
C1168       C  0.18676456  0.40882476  0.37381512     0.37200
N1169       N  0.22670298  0.40459652  0.37522627    -0.89380
H1170       H  0.18206586  0.42674372  0.43140813     0.18320
H1171       H  0.11307645  0.40186283  0.31348867     0.18310
N1172       N  0.06890014  0.42530840  0.36930786    -0.88410
H1173       H  0.23677115  0.41039729  0.40209787     0.35680
H1174       H  0.23834564  0.42455544  0.35731345     0.40780
H1175       H  0.05572369  0.40552722  0.38631432     0.40400
H1176       H  0.05901303  0.42079921  0.34212070     0.35290
C1177       C  0.20022714  0.62353156  0.37231623    -0.26440
C1178       C  0.19383768  0.66211529  0.37488236    -0.14510
C1179       C  0.18188037  0.67724022  0.40933320     0.36120
C1180       C  0.17354388  0.65321961  0.43943449    -0.25890
C1181       C  0.17641903  0.61425066  0.43542315    -0.15130
C1182       C  0.19157828  0.59958136  0.40200353     0.37200
N1183       N  0.19715090  0.56016818  0.39757750    -0.89380
H1184       H  0.21067524  0.61163491  0.34643679     0.18320
H1185       H  0.16208807  0.66497277  0.46492987     0.18310
N1186       N  0.17593033  0.71659880  0.41318911    -0.88410
H1187       H  0.22537081  0.55556703  0.39154235     0.35680
H1188       H  0.18143080  0.55124824  0.37455368     0.40780
H1189       H  0.19257354  0.72610473  0.43529676     0.40400
H1190       H  0.14796379  0.72093354  0.42047070     0.35290
C1191       C  0.90142170  0.41059541  0.64980420    -0.26440
C1192       C  0.90193913  0.44982145  0.65045033    -0.14510
C1193       C  0.87026646  0.46924207  0.66433667     0.36120
C1194       C  0.83948385  0.44888375  0.67742186    -0.25890
C1195       C  0.83872766  0.40972651  0.67615813    -0.15130
C1196       C  0.87018927  0.39024954  0.66197421     0.37200
N1197       N  0.87119437  0.35021205  0.65828788    -0.89380
H1198       H  0.92518296  0.39555170  0.63850953     0.18320
H1199       H  0.81534697  0.46392854  0.68788796     0.18310
N1200       N  0.86691870  0.50927381  0.66339861    -0.88410
H1201       H  0.87479168  0.34406704  0.62988687     0.35680
H1202       H  0.84590212  0.33791034  0.66583795     0.40780
H1203       H  0.88896560  0.52209605  0.64939461     0.40400
H1204       H  0.86716917  0.51887158  0.69104885     0.35290
C1205       C  0.90262317  0.38612474  0.47475829    -0.26440
C1206       C  0.93416483  0.40319614  0.45885392    -0.14510
C1207       C  0.93645841  0.40677258  0.41945305     0.36120
C1208       C  0.90559801  0.39624242  0.39726182    -0.25890
C1209       C  0.87271428  0.38267618  0.41383141    -0.15130
C1210       C  0.87203295  0.37561423  0.45269360     0.37200
N1211       N  0.83968936  0.35885315  0.46971629    -0.89380
H1212       H  0.90114990  0.38247574  0.50486158     0.18320
H1213       H  0.90628008  0.40091187  0.36728602     0.18310
N1214       N  0.96895881  0.42303832  0.40228816    -0.88410
H1215       H  0.84346098  0.35593652  0.49861080     0.35680
H1216       H  0.83699195  0.33188410  0.45881179     0.40780
H1217       H  0.97006945  0.45112667  0.41024047     0.40400
H1218       H  0.96643234  0.42277442  0.37311344     0.35290
C1219       C  0.37306313  0.96482425  0.15979481    -0.26440
C1220       C  0.40459663  0.94401173  0.14936384    -0.14510
C1221       C  0.40398459  0.90462845  0.15311268     0.36120
C1222       C  0.37139561  0.88711403  0.16606205    -0.25890
C1223       C  0.33936526  0.90788041  0.17515547    -0.15130
C1224       C  0.34041675  0.94720775  0.17258453     0.37200
N1225       N  0.30829361  0.96906582  0.18285305    -0.89380
H1226       H  0.37348918  0.99495272  0.15670746     0.18320
H1227       H  0.37093365  0.85694412  0.16862915     0.18310
N1228       N  0.43593245  0.88164807  0.14499846    -0.88410
H1229       H  0.31353903  0.99754059  0.17898390     0.35680
H1230       H  0.30373164  0.96518917  0.21151323     0.40780
H1231       H  0.45946745  0.89755398  0.13843459     0.40400
H1232       H  0.42949495  0.86544197  0.12150910     0.35290
C1233       C  0.96358436  0.16588976  0.37841772    -0.26440
C1234       C  0.94274272  0.15130267  0.40832521    -0.14510
C1235       C  0.90320715  0.15018185  0.40561335     0.36120
C1236       C  0.88582126  0.16219596  0.37253944    -0.25890
C1237       C  0.90685993  0.17512127  0.34206600    -0.15130
C1238       C  0.94604963  0.17771603  0.34524400     0.37200
N1239       N  0.96784895  0.19199188  0.31459711    -0.89380
H1240       H  0.99381727  0.16648474  0.38030128     0.18320
H1241       H  0.85561543  0.16106370  0.37044560     0.18310
N1242       N  0.87980419  0.13781068  0.43590175    -0.88410
H1243       H  0.99630208  0.19174827  0.32128666     0.35680
H1244       H  0.96040888  0.21997658  0.31072829     0.40780
H1245       H  0.89501033  0.13325438  0.46042410     0.40400
H1246       H  0.86775861  0.11239260  0.42800320     0.35290
C1247       C  0.19068484  0.36294112  0.92202914    -0.26440
C1248       C  0.16843124  0.33863894  0.90068040    -0.14510
C1249       C  0.13077344  0.34780635  0.89376971     0.36120
C1250       C  0.11569087  0.38022928  0.90978134    -0.25890
C1251       C  0.13744452  0.40396144  0.93237271    -0.15130
C1252       C  0.17583085  0.39563911  0.93769291     0.37200
N1253       N  0.20087389  0.42005542  0.95745119    -0.89380
H1254       H  0.21990341  0.35637285  0.92665973     0.18320
H1255       H  0.08635572  0.38642724  0.90542952     0.18310
N1256       N  0.10799127  0.32408729  0.87061089    -0.88410
H1257       H  0.20628845  0.40813521  0.98362866     0.35680
H1258       H  0.18932469  0.44648147  0.96161533     0.40780
H1259       H  0.11925067  0.32454067  0.84359850     0.40400
H1260       H  0.08083601  0.33467711  0.86849404     0.35290
C1261       C  0.18105491  0.89609337  0.94356061    -0.26440
C1262       C  0.17295790  0.93408948  0.93723559    -0.14510
C1263       C  0.19677482  0.95490231  0.91320602     0.36120
C1264       C  0.22878594  0.93786506  0.89820926    -0.25890
C1265       C  0.23727932  0.90047730  0.90574185    -0.15130
C1266       C  0.21281953  0.87903530  0.92819626     0.37200
N1267       N  0.21949455  0.84027897  0.93657279    -0.89380
H1268       H  0.16309309  0.87952263  0.96147088     0.18320
H1269       H  0.24745448  0.95391266  0.88051438     0.18310
N1270       N  0.18913455  0.99343100  0.90467511    -0.88410
H1271       H  0.22355515  0.83801813  0.96548836     0.35680
H1272       H  0.24388779  0.83044384  0.92399643     0.40780
H1273       H  0.16499161  0.99411853  0.88817116     0.40400
H1274       H  0.21046342  0.00493762  0.88831963     0.35290
C1275       C  0.16485280  0.88840116  0.10750920    -0.26440
C1276       C  0.13461137  0.90342519  0.12772009    -0.14510
C1277       C  0.13748230  0.90617055  0.16725898     0.36120
C1278       C  0.17105528  0.89596358  0.18501267    -0.25890
C1279       C  0.20196093  0.88352413  0.16435274    -0.15130
C1280       C  0.19834001  0.87830900  0.12536979     0.37200
N1281       N  0.22883891  0.86311808  0.10402546    -0.89380
H1282       H  0.16282205  0.88542656  0.07737911     0.18320
H1283       H  0.17376606  0.89959397  0.21501899     0.18310
N1284       N  0.10717376  0.92079443  0.18926818    -0.88410
H1285       H  0.22177436  0.86127646  0.07566468     0.35680
H1286       H  0.23334564  0.83579713  0.11335964     0.40780
H1287       H  0.10519093  0.94937241  0.18353267     0.40400
H1288       H  0.11309572  0.91862918  0.21786877     0.35290
C1289       C  0.90399178  0.18198474  0.94212935    -0.26440
C1290       C  0.94170231  0.17390686  0.93478006    -0.14510
C1291       C  0.96217949  0.19760146  0.91046801     0.36120
C1292       C  0.94455997  0.22877347  0.89442157    -0.25890
C1293       C  0.90709813  0.23700207  0.90215610    -0.15130
C1294       C  0.88652717  0.21318125  0.92584676     0.37200
N1295       N  0.84825404  0.22127713  0.93433871    -0.89380
H1296       H  0.88807488  0.16418287  0.96079005     0.18320
H1297       H  0.96029634  0.24718226  0.87619519     0.18310
N1298       N  0.00112095  0.19074606  0.90309968    -0.88410
H1299       H  0.84579664  0.22429433  0.96335782     0.35680
H1300       H  0.83210853  0.19831475  0.92622641     0.40780
H1301       H  0.01568542  0.19456065  0.92820921     0.40400
H1302       H  0.01176609  0.21038939  0.88422730     0.35290
C1303       C  0.10996448  0.16025856  0.88619651    -0.26440
C1304       C  0.12858577  0.13401099  0.90873353    -0.14510
C1305       C  0.16645557  0.14033166  0.91843738     0.36120
C1306       C  0.18425204  0.17315084  0.90629908    -0.25890
C1307       C  0.16501733  0.20008462  0.88533272    -0.15130
C1308       C  0.12775341  0.19290626  0.87391563     0.37200
N1309       N  0.10704079  0.21797364  0.85015686    -0.89380
H1310       H  0.08107391  0.15560202  0.87831137     0.18320
H1311       H  0.21277997  0.17870478  0.91488302     0.18310
N1312       N  0.18619682  0.11456214  0.94221495    -0.88410
H1313       H  0.09954598  0.20315840  0.82606001     0.35680
H1314       H  0.12351611  0.24012364  0.84081870     0.40780
H1315       H  0.17376825  0.11561353  0.96869538     0.40400
H1316       H  0.21394655  0.12298076  0.94586459     0.35290
C1317       C  0.93883847  0.90676543  0.23655487    -0.26440
C1318       C  0.89978582  0.90470725  0.23855185    -0.14510
C1319       C  0.87804851  0.91813559  0.20820093     0.36120
C1320       C  0.89609632  0.93369119  0.17699911    -0.25890
C1321       C  0.93523712  0.93652762  0.17532493    -0.15130
C1322       C  0.95685372  0.92274443  0.20555297     0.37200
N1323       N  0.99691549  0.92625127  0.20546171    -0.89380
H1324       H  0.95537553  0.89648468  0.25983275     0.18320
H1325       H  0.87924249  0.94451087  0.15421216     0.18310
N1326       N  0.83785526  0.91828588  0.20863542    -0.88410
H1327       H  0.00849343  0.91403335  0.22941273     0.35680
H1328       H  0.00328165  0.95472772  0.20688003     0.40780
H1329       H  0.82702963  0.90929771  0.23419337     0.40400
H1330       H  0.82869768  0.89954126  0.18814206     0.35290
C1331       C  0.91038294  0.18104045  0.17905389    -0.26440
C1332       C  0.88603765  0.16352584  0.20418903    -0.14510
C1333       C  0.87117546  0.12795229  0.19522279     0.36120
C1334       C  0.88239283  0.11025125  0.16200310    -0.25890
C1335       C  0.90769751  0.12730865  0.13723849    -0.15130
C1336       C  0.92147734  0.16344746  0.14594968     0.37200
N1337       N  0.94841931  0.18220820  0.12298275    -0.89380
H1338       H  0.92191348  0.20821326  0.18587708     0.18320
H1339       H  0.87157367  0.08266401  0.15573850     0.18310
N1340       N  0.84452107  0.10915311  0.21875284    -0.88410
H1341       H  0.93661135  0.18732939  0.09670774     0.35680
H1342       H  0.97187480  0.16504934  0.11997214     0.40780
H1343       H  0.83681119  0.12538846  0.24174638     0.40400
H1344       H  0.85733754  0.08506740  0.22922734     0.35290
loop_ 
_geom_bond_atom_site_label_1 
_geom_bond_atom_site_label_2 
_geom_bond_distance 
_geom_bond_site_symmetry_2 
_ccdc_geom_bond_type 
C1            C2   1.405       .  A
C1            C6   1.407       .  A
C1          C657   1.497       .  S
C2            C3   1.403       .  A
C2            H7   1.080       .  S
C3            C4   1.407       .  A
C3          C357   1.491       .  S
C4            C5   1.405       .  A
C4            H8   1.079       .  S
C5            C6   1.410       .  A
C5          C207   1.500       .  S
C6            H9   1.078       .  S
C10          C11   1.407       .  A
C10          C15   1.408       .  A
C10         C132   1.501       .  S
C11          C12   1.407       .  A
C11          H16   1.077       .  S
C12          C13   1.404       .  A
C12         C198   1.497       .  S
C13          C14   1.406       .  A
C13          H17   1.078       .  S
C14          C15   1.406       .  A
C14         C639   1.495       .  S
C15          H18   1.078       .  S
C19          C20   1.404       .  A
C19          C24   1.407       .  A
C19         C282   1.495       .  S
C20          C21   1.404       .  A
C20          H25   1.080       .  S
C21          C22   1.403       .  A
C21         C564   1.489       .  S
C22          C23   1.407       .  A
C22          H26   1.081       .  S
C23          C24   1.408       .  A
C23         C414   1.496       .  S
C24          H27   1.079       .  S
C28          C29   1.408       .  A
C28          C33   1.407       .  A
C28         C498   1.499       .  S
C29          C30   1.407       .  A
C29          H34   1.078       .  S
C30          C31   1.406       .  A
C30         C423   1.498       .  S
C31          C32   1.405       .  A
C31          H35   1.078       .  S
C32          C33   1.407       .  A
C32         C273   1.498       .  S
C33          H36   1.078       .  S
C37          C38   1.405       .  A
C37          C42   1.408       .  A
C37         C348   1.498       .  S
C38          C39   1.406       .  A
C38          H43   1.078       .  S
C39          C40   1.406       .  A
C39         C191   1.496       .  S
C40          C41   1.407       .  A
C40          H44   1.078       .  S
C41          C42   1.406       .  A
C41         C123   1.498       .  S
C42          H45   1.078       .  S
C46          C47   1.406       .  A
C46          C51   1.405       .  A
C46         C489   1.493       .  S
C47          C48   1.407       .  A
C47          H52   1.080       .  S
C48          C49   1.406       .  A
C48         C432   1.496       .  S
C49          C50   1.408       .  A
C49          H53   1.079       .  S
C50          C51   1.407       .  A
C50         C582   1.498       .  S
C51          H54   1.079       .  S
C55          C56   1.407       .  A
C55          C60   1.404       .  A
C55         C507   1.494       .  S
C56          C57   1.407       .  A
C56          H61   1.078       .  S
C57          C58   1.410       .  A
C57         C264   1.503       .  S
C58          C59   1.407       .  A
C58          H62   1.077       .  S
C59          C60   1.405       .  A
C59         C573   1.498       .  S
C60          H63   1.079       .  S
O64         Mg66   2.138       .  S
O64         Mg72   2.155       .  S
O64          C99   1.239   1_545  S
C65         H104   1.081       .  S
C65          O78   1.234       .  S
C65         O102   1.267       .  A
Mg66         O95   2.133   1_556  S
Mg66        O110   2.302       .  S
Mg66        O106   2.241   1_455  S
Mg66         O77   2.308   1_455  S
O67        Mg109   2.156       .  S
O67         Mg92   2.151       .  S
O67          C88   1.240   1_455  S
O68          C99   1.273       .  A
O68         Mg92   2.302   1_556  S
C69        C1335   1.483       .  S
C69          O71   1.272       .  A
C69          O83   1.276       .  A
O70          C98   1.268       .  A
O70         Mg72   2.292   1_554  S
O71        Mg103   2.259       .  S
Mg72         O78   2.113   1_556  S
Mg72         O86   2.255       .  S
Mg72         O74   2.288   1_545  S
C73        C1321   1.485       .  S
C73         O111   1.273       .  A
C73          O79   1.274       .  A
O74          C81   1.273       .  A
H75          C88   1.081       .  S
C76         H101   1.081       .  S
C76          O90   1.235       .  S
C76          O91   1.269       .  A
O77         C100   1.274       .  A
O78         Mg92   2.138   1_545  S
O79        Mg109   2.295   1_655  S
C80        C1276   1.490       .  S
C80          O93   1.272       .  A
C80          O85   1.275       .  A
C81        C1262   1.493       .  S
C81         O108   1.274       .  A
Mg82         O89   2.154       .  S
Mg82         O90   2.136   1_655  S
Mg82         O83   2.313       .  S
Mg82         O84   2.310   1_545  S
Mg82        O111   2.270   1_545  S
O84          C88   1.275       .  A
O85         Mg92   2.297       .  S
O86         C105   1.271       .  A
O87         C107   1.277       .  A
O87        Mg103   2.324   1_556  S
O89        Mg103   2.156       .  S
O89         C100   1.240   1_554  S
O90        Mg109   2.129   1_545  S
O91        Mg103   2.298   1_455  S
Mg92        O108   2.273   1_554  S
O93        Mg109   2.265       .  S
H94          C99   1.081       .  S
O95        Mg103   2.124   1_455  S
O95          C98   1.235       .  S
H96          C98   1.081       .  S
H97         C100   1.081       .  S
O102       Mg109   2.289   1_545  S
C105       C1304   1.484       .  S
C105        O110   1.275       .  A
O106        C107   1.269       .  A
C107       C1290   1.483       .  S
C112        C113   1.401       .  A
C112        C117   1.400       .  A
C112       C1248   1.480       .  S
C113        C114   1.400       .  A
C113        H118   1.084       .  S
C114        C115   1.402       .  A
C114       C1307   1.480       .  S
C115        C116   1.411       .  A
C115        H119   1.082       .  S
C116        C117   1.409       .  A
C116        C666   1.495       .  S
C117        H120   1.082       .  S
C121        C122   1.400       .  A
C121        C126   1.401       .  A
C121       C1237   1.480       .  S
C122        C123   1.410       .  A
C122        H127   1.082       .  S
C123        C124   1.411       .  A
C124        C125   1.402       .  A
C124        H128   1.082       .  S
C125        C126   1.401       .  A
C125       C1332   1.478       .  S
C126        H129   1.084       .  S
C130        C131   1.401       .  A
C130        C135   1.401       .  A
C130       C1223   1.483       .  S
C131        C132   1.411       .  A
C131        H136   1.081       .  S
C132        C133   1.412       .  A
C133        C134   1.403       .  A
C133        H137   1.081       .  S
C134        C135   1.402       .  A
C134       C1279   1.485       .  S
C135        H138   1.084       .  S
O139       Mg141   2.118       .  S
O139       Mg147   2.124       .  S
O139        C174   1.234       .  S
C140        H179   1.081       .  S
C140        O153   1.240       .  S
C140        O177   1.275       .  A
Mg141       O170   2.138       .  S
Mg141       O185   2.288       .  S
Mg141       O181   2.222       .  S
Mg141       O152   2.297       .  S
O142       Mg184   2.134   1_655  S
O142       Mg167   2.125       .  S
O142        C163   1.235       .  S
O143        C174   1.268   1_655  A
O143       Mg167   2.291       .  S
C144       C1139   1.472       .  S
C144        O146   1.272       .  A
C144        O158   1.273       .  A
O145        C173   1.275       .  A
O145       Mg147   2.320       .  S
O146       Mg178   2.275       .  S
Mg147       O153   2.159       .  S
Mg147       O161   2.282       .  S
Mg147       O149   2.327   1_455  S
C148       C1153   1.485       .  S
C148        O186   1.271   1_655  A
C148        O154   1.277       .  A
O149        C156   1.276       .  A
H150        C163   1.081       .  S
C151        H176   1.081       .  S
C151        O165   1.240       .  S
C151        O166   1.275       .  A
O152        C175   1.269       .  A
O153       Mg167   2.151   1_455  S
O154       Mg184   2.334   1_655  S
C155       C1192   1.479       .  S
C155        O168   1.274       .  A
C155        O160   1.272       .  A
C156       C1206   1.481       .  S
C156        O183   1.270       .  A
Mg157       O164   2.128       .  S
Mg157       O165   2.144       .  S
Mg157       O158   2.300       .  S
Mg157       O159   2.296   1_455  S
Mg157       O186   2.244       .  S
O159        C163   1.269       .  A
O160       Mg167   2.286       .  S
O161        C180   1.272       .  A
O162        C182   1.277       .  A
O162       Mg178   2.339       .  S
O164       Mg178   2.130       .  S
O164        C175   1.235       .  S
O165       Mg184   2.161       .  S
O166       Mg178   2.319       .  S
Mg167       O183   2.234       .  S
O168       Mg184   2.287   1_655  S
H169        C174   1.081       .  S
O170       Mg178   2.158       .  S
O170        C173   1.240       .  S
H171        C173   1.081       .  S
H172        C175   1.081       .  S
O177       Mg184   2.315       .  S
C180       C1164   1.474       .  S
C180        O185   1.271       .  A
O181        C182   1.267       .  A
C182       C1181   1.483       .  S
C187        C188   1.400       .  A
C187        C192   1.399       .  A
C187       C1122   1.485       .  S
C188        C189   1.401       .  A
C188        H193   1.084       .  S
C189        C190   1.402       .  A
C189       C1209   1.483       .  S
C190        C191   1.413       .  A
C190        H194   1.082       .  S
C191        C192   1.412       .  A
C192        H195   1.082       .  S
C196        C197   1.394       .  A
C196        C201   1.395       .  A
C196       C1111   1.473       .  S
C197        C198   1.410       .  A
C197        H202   1.081       .  S
C198        C199   1.415       .  A
C199        C200   1.406       .  A
C199        H203   1.081       .  S
C200        C201   1.404       .  A
C200       C1178   1.487       .  S
C201        H204   1.084       .  S
C205        C206   1.398       .  A
C205        C210   1.399       .  A
C205       C1097   1.481       .  S
C206        C207   1.410       .  A
C206        H211   1.081       .  S
C207        C208   1.414       .  A
C208        C209   1.405       .  A
C208        H212   1.081       .  S
C209        C210   1.403       .  A
C209       C1150   1.486       .  S
C210        H213   1.084       .  S
O214       Mg216   2.127       .  S
O214       Mg222   2.133       .  S
O214        C249   1.235       .  S
C215        H254   1.081       .  S
C215        O228   1.240   1_655  S
C215        O252   1.276       .  A
Mg216       O245   2.146       .  S
Mg216       O260   2.286       .  S
Mg216       O256   2.238       .  S
Mg216       O227   2.291       .  S
O217       Mg259   2.128   1_565  S
O217       Mg242   2.124   1_655  S
O217        C238   1.235   1_655  S
O218        C249   1.269   1_565  A
O218       Mg242   2.296       .  S
C219       C1234   1.476       .  S
C219        O221   1.273       .  A
C219        O233   1.271       .  A
O220        C248   1.275       .  A
O220       Mg222   2.316       .  S
O221       Mg253   2.285   1_655  S
Mg222       O228   2.160       .  S
Mg222       O236   2.282       .  S
Mg222       O224   2.340   1_545  S
C223       C1038   1.478       .  S
C223        O261   1.268   1_565  A
C223        O229   1.277       .  A
O224        C231   1.278       .  A
H225        C238   1.081       .  S
C226        H251   1.081       .  S
C226        O240   1.239       .  S
C226        O241   1.274       .  A
O227        C250   1.268       .  A
O228       Mg242   2.143   1_545  S
O229       Mg259   2.332   1_565  S
C230       C1094   1.472       .  S
C230        O243   1.271       .  A
C230        O235   1.272       .  A
C231       C1052   1.487       .  S
C231        O258   1.269       .  A
Mg232       O239   2.119   1_655  S
Mg232       O240   2.142       .  S
Mg232       O233   2.282       .  S
Mg232       O234   2.296   1_645  S
Mg232       O261   2.231       .  S
O234        C238   1.269       .  A
O235       Mg242   2.290   1_655  S
O236        C255   1.274       .  A
O237        C257   1.276       .  A
O237       Mg253   2.325       .  S
O239       Mg253   2.134       .  S
O239        C250   1.235       .  S
O240       Mg259   2.151       .  S
O241       Mg253   2.313   1_655  S
Mg242       O258   2.230       .  S
O243       Mg259   2.271   1_565  S
H244        C249   1.081       .  S
O245       Mg253   2.159       .  S
O245        C248   1.239       .  S
H246        C248   1.081       .  S
H247        C250   1.081       .  S
O252       Mg259   2.321       .  S
C255       C1066   1.474       .  S
C255        O260   1.272       .  A
O256        C257   1.268       .  A
C257       C1083   1.474       .  S
C262        C263   1.400       .  A
C262        C267   1.401       .  A
C262       C1136   1.488       .  S
C263        C264   1.412       .  A
C263        H268   1.080       .  S
C264        C265   1.414       .  A
C265        C266   1.405       .  A
C265        H269   1.080       .  S
C266        C267   1.404       .  A
C266       C1055   1.489       .  S
C267        H270   1.083       .  S
C271        C272   1.402       .  A
C271        C276   1.401       .  A
C271       C1024   1.487       .  S
C272        C273   1.412       .  A
C272        H277   1.081       .  S
C273        C274   1.412       .  A
C274        C275   1.401       .  A
C274        H278   1.081       .  S
C275        C276   1.400       .  A
C275       C1080   1.479       .  S
C276        H279   1.084       .  S
C280        C281   1.399       .  A
C280        C285   1.398       .  A
C280       C1318   1.480       .  S
C281        C282   1.410       .  A
C281        H286   1.082       .  S
C282        C283   1.413       .  A
C283        C284   1.403       .  A
C283        H287   1.082       .  S
C284        C285   1.402       .  A
C284       C1041   1.483       .  S
C285        H288   1.084       .  S
O289       Mg291   2.151       .  S
O289       Mg297   2.159       .  S
O289        C324   1.240       .  S
C290        H329   1.081       .  S
C290        O303   1.234       .  S
C290        O327   1.268       .  A
Mg291       O320   2.128   1_554  S
Mg291       O335   2.301   1_554  S
Mg291       O331   2.261   1_554  S
Mg291       O302   2.303       .  S
O292       Mg334   2.155       .  S
O292       Mg317   2.157       .  S
O292        C313   1.241       .  S
O293        C324   1.274       .  A
O293       Mg317   2.307       .  S
C294        C957   1.475       .  S
C294        O296   1.272       .  A
C294        O308   1.274   1_556  A
O295        C323   1.267       .  A
O295       Mg297   2.288   1_556  S
O296       Mg328   2.282       .  S
Mg297       O303   2.129       .  S
Mg297       O311   2.266   1_554  S
Mg297       O299   2.297       .  S
C298        C940   1.489       .  S
C298        O336   1.271       .  A
C298        O304   1.276       .  A
O299        C306   1.274       .  A
H300        C313   1.081       .  S
C301        H326   1.081       .  S
C301        O315   1.235       .  S
C301        O316   1.270   1_554  A
O302        C325   1.273       .  A
O303       Mg317   2.138       .  S
O304       Mg334   2.319       .  S
C305        C982   1.487       .  S
C305        O318   1.273       .  A
C305        O310   1.276       .  A
C306        C968   1.484       .  S
C306        O333   1.273       .  A
Mg307       O314   2.146       .  S
Mg307       O315   2.134       .  S
Mg307       O308   2.305       .  S
Mg307       O309   2.313       .  S
Mg307       O336   2.253       .  S
O309        C313   1.275       .  A
O310       Mg317   2.315       .  S
O311        C330   1.273       .  A
O312        C332   1.277       .  A
O312       Mg328   2.320       .  S
O314       Mg328   2.152   1_554  S
O314        C325   1.239       .  S
O315       Mg334   2.128       .  S
O316       Mg328   2.293       .  S
Mg317       O333   2.275       .  S
O318       Mg334   2.261       .  S
H319        C324   1.081       .  S
O320       Mg328   2.116       .  S
O320        C323   1.235       .  S
H321        C323   1.081       .  S
H322        C325   1.081       .  S
O327       Mg334   2.298       .  S
C330       C1010   1.489       .  S
C330        O335   1.275       .  A
O331        C332   1.273       .  A
C332        C999   1.489       .  S
C337        C338   1.398       .  A
C337        C342   1.397       .  A
C337        C929   1.475       .  S
C338        C339   1.403       .  A
C338        H343   1.084       .  S
C339        C340   1.405       .  A
C339       C1013   1.484       .  S
C340        C341   1.412       .  A
C340        H344   1.081       .  S
C341        C342   1.410       .  A
C341        C668   1.498       .  S
C342        H345   1.082       .  S
C346        C347   1.396       .  A
C346        C351   1.398       .  A
C346        C915   1.471       .  S
C347        C348   1.409       .  A
C347        H352   1.081       .  S
C348        C349   1.413       .  A
C349        C350   1.405       .  A
C349        H353   1.081       .  S
C350        C351   1.401       .  A
C350        C985   1.481       .  S
C351        H354   1.084       .  S
C355        C356   1.395       .  A
C355        C360   1.396       .  A
C355        C898   1.475       .  S
C356        C357   1.409       .  A
C356        H361   1.081       .  S
C357        C358   1.413       .  A
C358        C359   1.405       .  A
C358        H362   1.082       .  S
C359        C360   1.404       .  A
C359        C954   1.489       .  S
C360        H363   1.084       .  S
O364       Mg366   2.141       .  S
O364       Mg372   2.159       .  S
O364        C399   1.239       .  S
C365        H404   1.081       .  S
C365        O378   1.235       .  S
C365        O402   1.268       .  A
Mg366       O395   2.135   1_455  S
Mg366       O410   2.294   1_455  S
Mg366       O406   2.254   1_454  S
Mg366       O377   2.305   1_554  S
O367       Mg409   2.157       .  S
O367       Mg392   2.149       .  S
O367        C388   1.240   1_554  S
O368        C399   1.273       .  A
O368       Mg392   2.303       .  S
C369        C859   1.470       .  S
C369        O371   1.271       .  A
C369        O383   1.274   1_655  A
O370        C398   1.268       .  A
O370       Mg372   2.289   1_655  S
O371       Mg403   2.263       .  S
Mg372       O378   2.127       .  S
Mg372       O386   2.268       .  S
Mg372       O374   2.303       .  S
C373       C1251   1.481       .  S
C373        O411   1.271       .  A
C373        O379   1.276       .  A
O374        C381   1.276       .  A
H375        C388   1.081       .  S
C376        H401   1.081       .  S
C376        O390   1.235       .  S
C376        O391   1.269   1_455  A
O377        C400   1.274       .  A
O378       Mg392   2.138       .  S
O379       Mg409   2.312   1_556  S
C380        C887   1.480       .  S
C380        O393   1.273       .  A
C380        O385   1.276       .  A
C381       C1108   1.489       .  S
C381        O408   1.271       .  A
Mg382       O389   2.141       .  S
Mg382       O390   2.136   1_556  S
Mg382       O383   2.307       .  S
Mg382       O384   2.308       .  S
Mg382       O411   2.247       .  S
O384        C388   1.274       .  A
O385       Mg392   2.310       .  S
O386        C405   1.274   1_455  A
O387        C407   1.275       .  A
O387       Mg403   2.300       .  S
O389       Mg403   2.152   1_455  S
O389        C400   1.240       .  S
O390       Mg409   2.125       .  S
O391       Mg403   2.295   1_554  S
Mg392       O408   2.256       .  S
O393       Mg409   2.263       .  S
H394        C399   1.081       .  S
O395       Mg403   2.117   1_554  S
O395        C398   1.235       .  S
H396        C398   1.081       .  S
H397        C400   1.081       .  S
O402       Mg409   2.294       .  S
C405        C873   1.488       .  S
C405        O410   1.273       .  A
O406        C407   1.271       .  A
C407        C901   1.485       .  S
C412        C413   1.399       .  A
C412        C417   1.401       .  A
C412        C943   1.480       .  S
C413        C414   1.410       .  A
C413        H418   1.082       .  S
C414        C415   1.410       .  A
C415        C416   1.403       .  A
C415        H419   1.080       .  S
C416        C417   1.403       .  A
C416        C870   1.483       .  S
C417        H420   1.084       .  S
C421        C422   1.402       .  A
C421        C426   1.404       .  A
C421       C1167   1.487       .  S
C422        C423   1.411       .  A
C422        H427   1.080       .  S
C423        C424   1.409       .  A
C424        C425   1.401       .  A
C424        H428   1.082       .  S
C425        C426   1.401       .  A
C425        C884   1.477       .  S
C426        H429   1.084       .  S
C430        C431   1.400       .  A
C430        C435   1.400       .  A
C430       C1293   1.480       .  S
C431        C432   1.411       .  A
C431        H436   1.082       .  S
C432        C433   1.412       .  A
C433        C434   1.403       .  A
C433        H437   1.082       .  S
C434        C435   1.400       .  A
C434        C856   1.481       .  S
C435        H438   1.084       .  S
O439       Mg441   2.125   1_545  S
O439       Mg447   2.128       .  S
O439        C474   1.235       .  S
C440        H479   1.081       .  S
C440        O453   1.240       .  S
C440        O477   1.275       .  A
Mg441       O470   2.144       .  S
Mg441       O485   2.298       .  S
Mg441       O481   2.234       .  S
Mg441       O452   2.297   1_564  S
O442       Mg484   2.133       .  S
O442       Mg467   2.115       .  S
O442        C463   1.235       .  S
O443        C474   1.268       .  A
O443       Mg467   2.296       .  S
C444        C814   1.493       .  S
C444        O446   1.274       .  A
C444        O458   1.274       .  A
O445        C473   1.276       .  A
O445       Mg447   2.320   1_565  S
O446       Mg478   2.293   1_556  S
Mg447       O453   2.152       .  S
Mg447       O461   2.269   1_545  S
Mg447       O449   2.339       .  S
C448        C828   1.466       .  S
C448        O486   1.269       .  A
C448        O454   1.274       .  A
O449        C456   1.277       .  A
H450        C463   1.081       .  S
C451        H476   1.081       .  S
C451        O465   1.239   1_565  S
C451        O466   1.274       .  A
O452        C475   1.269       .  A
O453       Mg467   2.142       .  S
O454       Mg484   2.317   1_556  S
C455        C912   1.483       .  S
C455        O468   1.272       .  A
C455        O460   1.269       .  A
C456        C845   1.477       .  S
C456        O483   1.268       .  A
Mg457       O464   2.123       .  S
Mg457       O465   2.143   1_556  S
Mg457       O458   2.288   1_545  S
Mg457       O459   2.294       .  S
Mg457       O486   2.247       .  S
O459        C463   1.269   1_556  A
O460       Mg467   2.274       .  S
O461        C480   1.272       .  A
O462        C482   1.277       .  A
O462       Mg478   2.330   1_556  S
O464       Mg478   2.131   1_546  S
O464        C475   1.235       .  S
O465       Mg484   2.150       .  S
O466       Mg478   2.313       .  S
Mg467       O483   2.229       .  S
O468       Mg484   2.276       .  S
H469        C474   1.081       .  S
O470       Mg478   2.165       .  S
O470        C473   1.240       .  S
H471        C473   1.081       .  S
H472        C475   1.081       .  S
O477       Mg484   2.314       .  S
C480       C1220   1.474       .  S
C480        O485   1.273       .  A
O481        C482   1.269   1_554  A
C482        C800   1.474       .  S
C487        C488   1.404       .  A
C487        C492   1.403       .  A
C487        C786   1.490       .  S
C488        C489   1.412       .  A
C488        H493   1.082       .  S
C489        C490   1.410       .  A
C490        C491   1.399       .  A
C490        H494   1.083       .  S
C491        C492   1.400       .  A
C491        C831   1.477       .  S
C492        H495   1.084       .  S
C496        C497   1.402       .  A
C496        C501   1.401       .  A
C496        C971   1.488       .  S
C497        C498   1.412       .  A
C497        H502   1.080       .  S
C498        C499   1.412       .  A
C499        C500   1.401       .  A
C499        H503   1.080       .  S
C500        C501   1.402       .  A
C500        C842   1.482       .  S
C501        H504   1.084       .  S
C505        C506   1.398       .  A
C505        C510   1.398       .  A
C505       C1265   1.475       .  S
C506        C507   1.410       .  A
C506        H511   1.082       .  S
C507        C508   1.412       .  A
C508        C509   1.402       .  A
C508        H512   1.082       .  S
C509        C510   1.401       .  A
C509        C803   1.479       .  S
C510        H513   1.084       .  S
O514       Mg516   2.120       .  S
O514       Mg522   2.132       .  S
O514        C549   1.234       .  S
C515        H554   1.081       .  S
C515        O528   1.241       .  S
C515        O552   1.276       .  A
Mg516       O545   2.143       .  S
Mg516       O560   2.287       .  S
Mg516       O556   2.232       .  S
Mg516       O527   2.296       .  S
O517       Mg559   2.134       .  S
O517       Mg542   2.113       .  S
O517        C538   1.235       .  S
O518        C549   1.268       .  A
O518       Mg542   2.291       .  S
C519        C744   1.476       .  S
C519        O521   1.273       .  A
C519        O533   1.273       .  A
O520        C548   1.275       .  A
O520       Mg522   2.316       .  S
O521       Mg553   2.278       .  S
Mg522       O528   2.155       .  S
Mg522       O536   2.277       .  S
Mg522       O524   2.337       .  S
C523        C758   1.467       .  S
C523        O561   1.268       .  A
C523        O529   1.276       .  A
O524        C531   1.278       .  A
H525        C538   1.081       .  S
C526        H551   1.081       .  S
C526        O540   1.240       .  S
C526        O541   1.275       .  A
O527        C550   1.269       .  A
O528       Mg542   2.146       .  S
O529       Mg559   2.326       .  S
C530       C1125   1.491       .  S
C530        O543   1.273       .  A
C530        O535   1.271       .  A
C531        C775   1.477       .  S
C531        O558   1.268       .  A
Mg532       O539   2.122       .  S
Mg532       O540   2.144       .  S
Mg532       O533   2.293       .  S
Mg532       O534   2.294       .  S
Mg532       O561   2.235       .  S
O534        C538   1.269       .  A
O535       Mg542   2.270       .  S
O536        C555   1.273       .  A
O537        C557   1.276       .  A
O537       Mg553   2.329       .  S
O539       Mg553   2.129       .  S
O539        C550   1.235       .  S
O540       Mg559   2.159       .  S
O541       Mg553   2.316       .  S
Mg542       O558   2.230       .  S
O543       Mg559   2.289       .  S
H544        C549   1.081       .  S
O545       Mg553   2.157       .  S
O545        C548   1.239       .  S
H546        C548   1.081       .  S
H547        C550   1.081       .  S
O552       Mg559   2.315       .  S
C555        C926   1.483       .  S
C555        O560   1.273       .  A
O556        C557   1.269       .  A
C557        C730   1.480       .  S
C562        C563   1.397       .  A
C562        C567   1.399       .  A
C562        C719   1.480       .  S
C563        C564   1.409       .  A
C563        H568   1.083       .  S
C564        C565   1.409       .  A
C565        C566   1.402       .  A
C565        H569   1.083       .  S
C566        C567   1.404       .  A
C566        C761   1.481       .  S
C567        H570   1.084       .  S
C571        C572   1.398       .  A
C571        C576   1.398       .  A
C571        C996   1.481       .  S
C572        C573   1.413       .  A
C572        H577   1.081       .  S
C573        C574   1.413       .  A
C574        C575   1.403       .  A
C574        H578   1.081       .  S
C575        C576   1.402       .  A
C575        C733   1.484       .  S
C576        H579   1.084       .  S
C580        C581   1.400       .  A
C580        C585   1.401       .  A
C580       C1195   1.483       .  S
C581        C582   1.411       .  A
C581        H586   1.081       .  S
C582        C583   1.412       .  A
C583        C584   1.402       .  A
C583        H587   1.081       .  S
C584        C585   1.402       .  A
C584        C772   1.481       .  S
C585        H588   1.084       .  S
O589       Mg591   2.156       .  S
O589       Mg597   2.160       .  S
O589        C624   1.240       .  S
C590        H629   1.081       .  S
C590        O603   1.235       .  S
C590        O627   1.269   1_545  A
Mg591       O620   2.141       .  S
Mg591       O635   2.309       .  S
Mg591       O631   2.274       .  S
Mg591       O602   2.302       .  S
O592       Mg634   2.162   1_545  S
O592       Mg617   2.148       .  S
O592        C613   1.240       .  S
O593        C624   1.275       .  A
O593       Mg617   2.310       .  S
C594        C705   1.488       .  S
C594        O596   1.274   1_565  A
C594        O608   1.272       .  A
O595        C623   1.268       .  A
O595       Mg597   2.290       .  S
O596       Mg628   2.270       .  S
Mg597       O603   2.131       .  S
Mg597       O611   2.261       .  S
Mg597       O599   2.317       .  S
C598        C716   1.484       .  S
C598        O636   1.271       .  A
C598        O604   1.276       .  A
O599        C606   1.276       .  A
H600        C613   1.081       .  S
C601        H626   1.081       .  S
C601        O615   1.235       .  S
C601        O616   1.268       .  A
O602        C625   1.273       .  A
O603       Mg617   2.134       .  S
O604       Mg634   2.313       .  S
C605        C677   1.484       .  S
C605        O618   1.272       .  A
C605        O610   1.274   1_565  A
C606        C789   1.479       .  S
C606        O633   1.272       .  A
Mg607       O614   2.140       .  S
Mg607       O615   2.138   1_545  S
Mg607       O608   2.292   1_545  S
Mg607       O609   2.304       .  S
Mg607       O636   2.252   1_545  S
O609        C613   1.274       .  A
O610       Mg617   2.304       .  S
O611        C630   1.273       .  A
O612        C632   1.276       .  A
O612       Mg628   2.298       .  S
O614       Mg628   2.156       .  S
O614        C625   1.239       .  S
O615       Mg634   2.118       .  S
O616       Mg628   2.291   1_565  S
Mg617       O633   2.262       .  S
O618       Mg634   2.261       .  S
H619        C624   1.081       .  S
O620       Mg628   2.122       .  S
O620        C623   1.234       .  S
H621        C623   1.081       .  S
H622        C625   1.081       .  S
O627       Mg634   2.297       .  S
C630        C688   1.476       .  S
C630        O635   1.276       .  A
O631        C632   1.274       .  A
C632       C1027   1.481       .  S
C637        C638   1.400       .  A
C637        C642   1.402       .  A
C637        C747   1.482       .  S
C638        C639   1.409       .  A
C638        H643   1.082       .  S
C639        C640   1.409       .  A
C640        C641   1.401       .  A
C640        H644   1.081       .  S
C641        C642   1.403       .  A
C641        C702   1.480       .  S
C642        H645   1.084       .  S
C646        C647   1.403       .  A
C646        C651   1.402       .  A
C646       C1069   1.486       .  S
C647        C648   1.400       .  A
C647        H652   1.084       .  S
C648        C649   1.401       .  A
C648        C691   1.475       .  S
C649        C650   1.410       .  A
C649        H653   1.082       .  S
C650        C651   1.411       .  A
C650        C664   1.497       .  S
C651        H654   1.081       .  S
C655        C656   1.402       .  A
C655        C660   1.404       .  A
C655        C817   1.490       .  S
C656        C657   1.411       .  A
C656        H661   1.082       .  S
C657        C658   1.409       .  A
C658        C659   1.401       .  A
C658        H662   1.081       .  S
C659        C660   1.401       .  A
C659        C674   1.479       .  S
C660        H663   1.083       .  S
C664        C665   1.406       .  A
C664        C669   1.406       .  A
C665        C666   1.405       .  A
C665        H670   1.079       .  S
C666        C667   1.407       .  A
C667        C668   1.407       .  A
C667        H671   1.079       .  S
C668        C669   1.408       .  A
C669        H672   1.078       .  S
C673        C674   1.403       .  A
C673        C678   1.407       .  A
C673        H680   1.084       .  S
C674        C675   1.410       .  A
C675        C676   1.398       .  A
C675        N682   1.433       .  S
C676        C677   1.407       .  A
C676        H681   1.084       .  S
C677        C678   1.416       .  A
C678        N679   1.438   1_565  S
N679        H683   1.046       .  S
N679        H684   1.043       .  S
N682        H685   1.046       .  S
N682        H686   1.044       .  S
C687        C688   1.404       .  A
C687        C692   1.398       .  A
C687        H694   1.085       .  S
C688        C689   1.417       .  A
C689        C690   1.405       .  A
C689        N696   1.439       .  S
C690        C691   1.404       .  A
C690        H695   1.084       .  S
C691        C692   1.413       .  A
C692        N693   1.439       .  S
N693        H697   1.046       .  S
N693        H698   1.043       .  S
N696        H699   1.043       .  S
N696        H700   1.046       .  S
C701        C702   1.402       .  A
C701        C706   1.407       .  A
C701        H708   1.084       .  S
C702        C703   1.411       .  A
C703        C704   1.398       .  A
C703        N710   1.433       .  S
C704        C705   1.407       .  A
C704        H709   1.084       .  S
C705        C706   1.419       .  A
C706        N707   1.438       .  S
N707        H711   1.046       .  S
N707        H712   1.045       .  S
N710        H713   1.046       .  S
N710        H714   1.044       .  S
C715        C716   1.407       .  A
C715        C720   1.398       .  A
C715        H722   1.083       .  S
C716        C717   1.419       .  A
C717        C718   1.404       .  A
C717        N724   1.440       .  S
C718        C719   1.404       .  A
C718        H723   1.084       .  S
C719        C720   1.413       .  A
C720        N721   1.438       .  S
N721        H725   1.045       .  S
N721        H726   1.043       .  S
N724        H727   1.042       .  S
N724        H728   1.046       .  S
C729        C730   1.404       .  A
C729        C734   1.401       .  A
C729        H736   1.084       .  S
C730        C731   1.414       .  A
C731        C732   1.409       .  A
C731        N738   1.438       .  S
C732        C733   1.404       .  A
C732        H737   1.083       .  S
C733        C734   1.411       .  A
C734        N735   1.439       .  S
N735        H739   1.046       .  S
N735        H740   1.045       .  S
N738        H741   1.046       .  S
N738        H742   1.046       .  S
C743        C744   1.404       .  A
C743        C748   1.405       .  A
C743        H750   1.084       .  S
C744        C745   1.417       .  A
C745        C746   1.402       .  A
C745        N752   1.438       .  S
C746        C747   1.403       .  A
C746        H751   1.084       .  S
C747        C748   1.410       .  A
C748        N749   1.438       .  S
N749        H753   1.046       .  S
N749        H754   1.046       .  S
N752        H755   1.043       .  S
N752        H756   1.045       .  S
C757        C758   1.401       .  A
C757        C762   1.394       .  A
C757        H764   1.085       .  S
C758        C759   1.413       .  A
C759        C760   1.406       .  A
C759        N766   1.438       .  S
C760        C761   1.408       .  A
C760        H765   1.084       .  S
C761        C762   1.415       .  A
C762        N763   1.438       .  S
N763        H767   1.045       .  S
N763        H768   1.043       .  S
N766        H769   1.044       .  S
N766        H770   1.046       .  S
C771        C772   1.402       .  A
C771        C776   1.399       .  A
C771        H778   1.084       .  S
C772        C773   1.413       .  A
C773        C774   1.401       .  A
C773        N780   1.432       .  S
C774        C775   1.405       .  A
C774        H779   1.084       .  S
C775        C776   1.418       .  A
C776        N777   1.438       .  S
N777        H781   1.046       .  S
N777        H782   1.044       .  S
N780        H783   1.046       .  S
N780        H784   1.044       .  S
C785        C786   1.402       .  A
C785        C790   1.397       .  A
C785        H792   1.084       .  S
C786        C787   1.415       .  A
C787        C788   1.410       .  A
C787        N794   1.438       .  S
C788        C789   1.404       .  A
C788        H793   1.084       .  S
C789        C790   1.419       .  A
C790        N791   1.438       .  S
N791        H795   1.045       .  S
N791        H796   1.042       .  S
N794        H797   1.046       .  S
N794        H798   1.046       .  S
C799        C800   1.404       .  A
C799        C804   1.403       .  A
C799        H806   1.084       .  S
C800        C801   1.416       .  A
C801        C802   1.399       .  A
C801        N808   1.439   1_556  S
C802        C803   1.403       .  A
C802        H807   1.084       .  S
C803        C804   1.417       .  A
C804        N805   1.439       .  S
N805        H809   1.046       .  S
N805        H810   1.042       .  S
N808        H811   1.044       .  S
N808        H812   1.046       .  S
C813        C814   1.410       .  A
C813        C818   1.400       .  A
C813        H820   1.084       .  S
C814        C815   1.422       .  A
C815        C816   1.408       .  A
C815        N822   1.440       .  S
C816        C817   1.407       .  A
C816        H821   1.084       .  S
C817        C818   1.406       .  A
C818        N819   1.433       .  S
N819        H823   1.046       .  S
N819        H824   1.046       .  S
N822        H825   1.042       .  S
N822        H826   1.046       .  S
C827        C828   1.401       .  A
C827        C832   1.397       .  A
C827        H834   1.085       .  S
C828        C829   1.413       .  A
C829        C830   1.404       .  A
C829        N836   1.438       .  S
C830        C831   1.406       .  A
C830        H835   1.084       .  S
C831        C832   1.414       .  A
C832        N833   1.438       .  S
N833        H837   1.046       .  S
N833        H838   1.043       .  S
N836        H839   1.044       .  S
N836        H840   1.046       .  S
C841        C842   1.402       .  A
C841        C846   1.400       .  A
C841        H848   1.084       .  S
C842        C843   1.415       .  A
C843        C844   1.403       .  A
C843        N850   1.432       .  S
C844        C845   1.404       .  A
C844        H849   1.084       .  S
C845        C846   1.410       .  A
C846        N847   1.433       .  S
N847        H851   1.046       .  S
N847        H852   1.046       .  S
N850        H853   1.045       .  S
N850        H854   1.044       .  S
C855        C856   1.402       .  A
C855        C860   1.401       .  A
C855        H862   1.084       .  S
C856        C857   1.422       .  A
C857        C858   1.407       .  A
C857        N864   1.439       .  S
C858        C859   1.400       .  A
C858        H863   1.084       .  S
C859        C860   1.408       .  A
C860        N861   1.438       .  S
N861        H865   1.046       .  S
N861        H866   1.045       .  S
N864        H867   1.042       .  S
N864        H868   1.046       .  S
C869        C870   1.403       .  A
C869        C874   1.407       .  A
C869        H876   1.084       .  S
C870        C871   1.412       .  A
C871        C872   1.398       .  A
C871        N878   1.433       .  S
C872        C873   1.407       .  A
C872        H877   1.084       .  S
C873        C874   1.418       .  A
C874        N875   1.438       .  S
N875        H879   1.046       .  S
N875        H880   1.045       .  S
N878        H881   1.046       .  S
N878        H882   1.043       .  S
C883        C884   1.402       .  A
C883        C888   1.404       .  A
C883        H890   1.084       .  S
C884        C885   1.406       .  A
C885        C886   1.403       .  A
C885        N892   1.438       .  S
C886        C887   1.406       .  A
C886        H891   1.084       .  S
C887        C888   1.418       .  A
C888        N889   1.437       .  S
N889        H893   1.044       .  S
N889        H894   1.043       .  S
N892        H895   1.045       .  S
N892        H896   1.046       .  S
C897        C898   1.400       .  A
C897        C902   1.402       .  A
C897        H904   1.084       .  S
C898        C899   1.407       .  A
C899        C900   1.406       .  A
C899        N906   1.438       .  S
C900        C901   1.409       .  A
C900        H905   1.083       .  S
C901        C902   1.417       .  A
C902        N903   1.439       .  S
N903        H907   1.046       .  S
N903        H908   1.046       .  S
N906        H909   1.045       .  S
N906        H910   1.046       .  S
C911        C912   1.406       .  A
C911        C916   1.404       .  A
C911        H918   1.084       .  S
C912        C913   1.419       .  A
C913        C914   1.405       .  A
C913        N920   1.438       .  S
C914        C915   1.398       .  A
C914        H919   1.084       .  S
C915        C916   1.406       .  A
C916        N917   1.438       .  S
N917        H921   1.046       .  S
N917        H922   1.046       .  S
N920        H923   1.045       .  S
N920        H924   1.046       .  S
C925        C926   1.406       .  A
C925        C930   1.401       .  A
C925        H932   1.084       .  S
C926        C927   1.414       .  A
C927        C928   1.406       .  A
C927        N934   1.438       .  S
C928        C929   1.402       .  A
C928        H933   1.084       .  S
C929        C930   1.414       .  A
C930        N931   1.439       .  S
N931        H935   1.046       .  S
N931        H936   1.043       .  S
N934        H937   1.045       .  S
N934        H938   1.046       .  S
C939        C940   1.407       .  A
C939        C944   1.399       .  A
C939        H946   1.084       .  S
C940        C941   1.415       .  A
C941        C942   1.409       .  A
C941        N948   1.438       .  S
C942        C943   1.404       .  A
C942        H947   1.084       .  S
C943        C944   1.414       .  A
C944        N945   1.439       .  S
N945        H949   1.046       .  S
N945        H950   1.043       .  S
N948        H951   1.046       .  S
N948        H952   1.046       .  S
C953        C954   1.401       .  A
C953        C958   1.392       .  A
C953        H960   1.084       .  S
C954        C955   1.416       .  A
C955        C956   1.413       .  A
C955        N962   1.437       .  S
C956        C957   1.404       .  A
C956        H961   1.084       .  S
C957        C958   1.417       .  A
C958        N959   1.437       .  S
N959        H963   1.044       .  S
N959        H964   1.039       .  S
N962        H965   1.046       .  S
N962        H966   1.046       .  S
C967        C968   1.405       .  A
C967        C972   1.409       .  A
C967        H974   1.084       .  S
C968        C969   1.418       .  A
C969        C970   1.397       .  A
C969        N976   1.433       .  S
C970        C971   1.402       .  A
C970        H975   1.084       .  S
C971        C972   1.414       .  A
C972        N973   1.438       .  S
N973        H977   1.046       .  S
N973        H978   1.045       .  S
N976        H979   1.046       .  S
N976        H980   1.045       .  S
C981        C982   1.409       .  A
C981        C986   1.405       .  A
C981        H988   1.083       .  S
C982        C983   1.421       .  A
C983        C984   1.404       .  A
C983        N990   1.440       .  S
C984        C985   1.403       .  A
C984        H989   1.084       .  S
C985        C986   1.407       .  A
C986        N987   1.438       .  S
N987        H991   1.046       .  S
N987        H992   1.046       .  S
N990        H993   1.043       .  S
N990        H994   1.046       .  S
C995        C996   1.403       .  A
C995       C1000   1.410       .  A
C995       H1002   1.084       .  S
C996        C997   1.407       .  A
C997        C998   1.403       .  A
C997       N1004   1.438       .  S
C998        C999   1.408       .  A
C998       H1003   1.083       .  S
C999       C1000   1.417       .  A
C1000      N1001   1.438       .  S
N1001      H1005   1.046       .  S
N1001      H1006   1.045       .  S
N1004      H1007   1.046       .  S
N1004      H1008   1.046       .  S
C1009      C1010   1.408       .  A
C1009      C1014   1.405       .  A
C1009      H1016   1.083       .  S
C1010      C1011   1.417       .  A
C1011      C1012   1.406       .  A
C1011      N1018   1.438       .  S
C1012      C1013   1.403       .  A
C1012      H1017   1.084       .  S
C1013      C1014   1.410       .  A
C1014      N1015   1.438       .  S
N1015      H1019   1.046       .  S
N1015      H1020   1.046       .  S
N1018      H1021   1.046       .  S
N1018      H1022   1.046       .  S
C1023      C1024   1.406       .  A
C1023      C1028   1.405       .  A
C1023      H1030   1.084       .  S
C1024      C1025   1.409       .  A
C1025      C1026   1.400       .  A
C1025      N1032   1.433       .  S
C1026      C1027   1.404       .  A
C1026      H1031   1.084       .  S
C1027      C1028   1.419       .  A
C1028      N1029   1.439       .  S
N1029      H1033   1.046       .  S
N1029      H1034   1.042       .  S
N1032      H1035   1.046       .  S
N1032      H1036   1.046       .  S
C1037      C1038   1.405       .  A
C1037      C1042   1.409       .  A
C1037      H1044   1.084       .  S
C1038      C1039   1.411       .  A
C1039      C1040   1.401       .  A
C1039      N1046   1.438   1_565  S
C1040      C1041   1.403       .  A
C1040      H1045   1.084       .  S
C1041      C1042   1.412       .  A
C1042      N1043   1.437       .  S
N1043      H1047   1.046       .  S
N1043      H1048   1.046       .  S
N1046      H1049   1.045       .  S
N1046      H1050   1.046       .  S
C1051      C1052   1.406       .  A
C1051      C1056   1.399       .  A
C1051      H1058   1.084       .  S
C1052      C1053   1.416       .  A
C1053      C1054   1.411       .  A
C1053      N1060   1.438       .  S
C1054      C1055   1.406       .  A
C1054      H1059   1.083       .  S
C1055      C1056   1.409       .  A
C1056      N1057   1.433       .  S
N1057      H1061   1.046       .  S
N1057      H1062   1.046       .  S
N1060      H1063   1.045       .  S
N1060      H1064   1.046       .  S
C1065      C1066   1.404       .  A
C1065      C1070   1.407       .  A
C1065      H1072   1.084       .  S
C1066      C1067   1.418       .  A
C1067      C1068   1.400       .  A
C1067      N1074   1.439       .  S
C1068      C1069   1.403       .  A
C1068      H1073   1.084       .  S
C1069      C1070   1.413       .  A
C1070      N1071   1.438       .  S
N1071      H1075   1.046       .  S
N1071      H1076   1.046       .  S
N1074      H1077   1.042       .  S
N1074      H1078   1.045       .  S
C1079      C1080   1.403       .  A
C1079      C1084   1.397       .  A
C1079      H1086   1.084       .  S
C1080      C1081   1.413       .  A
C1081      C1082   1.400       .  A
C1081      N1088   1.432       .  S
C1082      C1083   1.404       .  A
C1082      H1087   1.084       .  S
C1083      C1084   1.415       .  A
C1084      N1085   1.433       .  S
N1085      H1089   1.044       .  S
N1085      H1090   1.045       .  S
N1088      H1091   1.046       .  S
N1088      H1092   1.044       .  S
C1093      C1094   1.403       .  A
C1093      C1098   1.404       .  A
C1093      H1100   1.084       .  S
C1094      C1095   1.416       .  A
C1095      C1096   1.401       .  A
C1095      N1102   1.438       .  S
C1096      C1097   1.404       .  A
C1096      H1101   1.084       .  S
C1097      C1098   1.410       .  A
C1098      N1099   1.438       .  S
N1099      H1103   1.046       .  S
N1099      H1104   1.046       .  S
N1102      H1105   1.043       .  S
N1102      H1106   1.045       .  S
C1107      C1108   1.409       .  A
C1107      C1112   1.407       .  A
C1107      H1114   1.083       .  S
C1108      C1109   1.419       .  A
C1109      C1110   1.402       .  A
C1109      N1116   1.437       .  S
C1110      C1111   1.397       .  A
C1110      H1115   1.084       .  S
C1111      C1112   1.407       .  A
C1112      N1113   1.438       .  S
N1113      H1117   1.046       .  S
N1113      H1118   1.045       .  S
N1116      H1119   1.046       .  S
N1116      H1120   1.046       .  S
C1121      C1122   1.406       .  A
C1121      C1126   1.404       .  A
C1121      H1128   1.084       .  S
C1122      C1123   1.406       .  A
C1123      C1124   1.397       .  A
C1123      N1130   1.433       .  S
C1124      C1125   1.409       .  A
C1124      H1129   1.084       .  S
C1125      C1126   1.419       .  A
C1126      N1127   1.432       .  S
N1127      H1131   1.045       .  S
N1127      H1132   1.045       .  S
N1130      H1133   1.046       .  S
N1130      H1134   1.046       .  S
C1135      C1136   1.406       .  A
C1135      C1140   1.404       .  A
C1135      H1142   1.084       .  S
C1136      C1137   1.410       .  A
C1137      C1138   1.402       .  A
C1137      N1144   1.433       .  S
C1138      C1139   1.402       .  A
C1138      H1143   1.084       .  S
C1139      C1140   1.416       .  A
C1140      N1141   1.439       .  S
N1141      H1145   1.046       .  S
N1141      H1146   1.044       .  S
N1144      H1147   1.046       .  S
N1144      H1148   1.046       .  S
C1149      C1150   1.404       .  A
C1149      C1154   1.410       .  A
C1149      H1156   1.084       .  S
C1150      C1151   1.417       .  A
C1151      C1152   1.398       .  A
C1151      N1158   1.438       .  S
C1152      C1153   1.404       .  A
C1152      H1157   1.084   1_655  S
C1153      C1154   1.414       .  A
C1154      N1155   1.437       .  S
N1155      H1159   1.046       .  S
N1155      H1160   1.045       .  S
N1158      H1161   1.043       .  S
N1158      H1162   1.045       .  S
C1163      C1164   1.402       .  A
C1163      C1168   1.407       .  A
C1163      H1170   1.084       .  S
C1164      C1165   1.410       .  A
C1165      C1166   1.405       .  A
C1165      N1172   1.438       .  S
C1166      C1167   1.404       .  A
C1166      H1171   1.084       .  S
C1167      C1168   1.414       .  A
C1168      N1169   1.438       .  S
N1169      H1173   1.046       .  S
N1169      H1174   1.045       .  S
N1172      H1175   1.045       .  S
N1172      H1176   1.046       .  S
C1177      C1178   1.403       .  A
C1177      C1182   1.398       .  A
C1177      H1184   1.084       .  S
C1178      C1179   1.411       .  A
C1179      C1180   1.408       .  A
C1179      N1186   1.432       .  S
C1180      C1181   1.406       .  A
C1180      H1185   1.084       .  S
C1181      C1182   1.412       .  A
C1182      N1183   1.434       .  S
N1183      H1187   1.046       .  S
N1183      H1188   1.046       .  S
N1186      H1189   1.046       .  S
N1186      H1190   1.046       .  S
C1191      C1192   1.404       .  A
C1191      C1196   1.403       .  A
C1191      H1198   1.084       .  S
C1192      C1193   1.419       .  A
C1193      C1194   1.401       .  A
C1193      N1200   1.438       .  S
C1194      C1195   1.403       .  A
C1194      H1199   1.084       .  S
C1195      C1196   1.418       .  A
C1196      N1197   1.440       .  S
N1197      H1201   1.046       .  S
N1197      H1202   1.042       .  S
N1200      H1203   1.041       .  S
N1200      H1204   1.045       .  S
C1205      C1206   1.404       .  A
C1205      C1210   1.400       .  A
C1205      H1212   1.084       .  S
C1206      C1207   1.415       .  A
C1207      C1208   1.410       .  A
C1207      N1214   1.438       .  S
C1208      C1209   1.404       .  A
C1208      H1213   1.083       .  S
C1209      C1210   1.411       .  A
C1210      N1211   1.438       .  S
N1211      H1215   1.046       .  S
N1211      H1216   1.045       .  S
N1214      H1217   1.046       .  S
N1214      H1218   1.046       .  S
C1219      C1220   1.403       .  A
C1219      C1224   1.404       .  A
C1219      H1226   1.084       .  S
C1220      C1221   1.416       .  A
C1221      C1222   1.402       .  A
C1221      N1228   1.438       .  S
C1222      C1223   1.404       .  A
C1222      H1227   1.084       .  S
C1223      C1224   1.411       .  A
C1224      N1225   1.438       .  S
N1225      H1229   1.046       .  S
N1225      H1230   1.046       .  S
N1228      H1231   1.043       .  S
N1228      H1232   1.045       .  S
C1233      C1234   1.403       .  A
C1233      C1238   1.405       .  A
C1233      H1240   1.084       .  S
C1234      C1235   1.418       .  A
C1235      C1236   1.402       .  A
C1235      N1242   1.438       .  S
C1236      C1237   1.402       .  A
C1236      H1241   1.084       .  S
C1237      C1238   1.410       .  A
C1238      N1239   1.438       .  S
N1239      H1243   1.046       .  S
N1239      H1244   1.046       .  S
N1242      H1245   1.043       .  S
N1242      H1246   1.046       .  S
C1247      C1248   1.404       .  A
C1247      C1252   1.402       .  A
C1247      H1254   1.084       .  S
C1248      C1249   1.408       .  A
C1249      C1250   1.402       .  A
C1249      N1256   1.438       .  S
C1250      C1251   1.406       .  A
C1250      H1255   1.084       .  S
C1251      C1252   1.418       .  A
C1252      N1253   1.437       .  S
N1253      H1257   1.045       .  S
N1253      H1258   1.043       .  S
N1256      H1259   1.046       .  S
N1256      H1260   1.046       .  S
C1261      C1262   1.409       .  A
C1261      C1266   1.402       .  A
C1261      H1268   1.084       .  S
C1262      C1263   1.420       .  A
C1263      C1264   1.404       .  A
C1263      N1270   1.438       .  S
C1264      C1265   1.398       .  A
C1264      H1269   1.084       .  S
C1265      C1266   1.414       .  A
C1266      N1267   1.439       .  S
N1267      H1271   1.046       .  S
N1267      H1272   1.043       .  S
N1270      H1273   1.046       .  S
N1270      H1274   1.046   1_565  S
C1275      C1276   1.408       .  A
C1275      C1280   1.404       .  A
C1275      H1282   1.083       .  S
C1276      C1277   1.419       .  A
C1277      C1278   1.406       .  A
C1277      N1284   1.438       .  S
C1278      C1279   1.402       .  A
C1278      H1283   1.084       .  S
C1279      C1280   1.410       .  A
C1280      N1281   1.438       .  S
N1281      H1285   1.046       .  S
N1281      H1286   1.046       .  S
N1284      H1287   1.046       .  S
N1284      H1288   1.046       .  S
C1289      C1290   1.405       .  A
C1289      C1294   1.405       .  A
C1289      H1296   1.084       .  S
C1290      C1291   1.418       .  A
C1291      C1292   1.403       .  A
C1291      N1298   1.439   1_655  S
C1292      C1293   1.400       .  A
C1292      H1297   1.084       .  S
C1293      C1294   1.409       .  A
C1294      N1295   1.432       .  S
N1295      H1299   1.046       .  S
N1295      H1300   1.046       .  S
N1298      H1301   1.046       .  S
N1298      H1302   1.046       .  S
C1303      C1304   1.405       .  A
C1303      C1308   1.401       .  A
C1303      H1310   1.084       .  S
C1304      C1305   1.417       .  A
C1305      C1306   1.405       .  A
C1305      N1312   1.438       .  S
C1306      C1307   1.401       .  A
C1306      H1311   1.084       .  S
C1307      C1308   1.417       .  A
C1308      N1309   1.440       .  S
N1309      H1313   1.046       .  S
N1309      H1314   1.043       .  S
N1312      H1315   1.046       .  S
N1312      H1316   1.046       .  S
C1317      C1318   1.401       .  A
C1317      C1322   1.403       .  A
C1317      H1324   1.084       .  S
C1318      C1319   1.417       .  A
C1319      C1320   1.403       .  A
C1319      N1326   1.438       .  S
C1320      C1321   1.405       .  A
C1320      H1325   1.084       .  S
C1321      C1322   1.416       .  A
C1322      N1323   1.439       .  S
N1323      H1327   1.046   1_655  S
N1323      H1328   1.046   1_655  S
N1326      H1329   1.042       .  S
N1326      H1330   1.045       .  S
C1331      C1332   1.399       .  A
C1331      C1336   1.397       .  A
C1331      H1338   1.084       .  S
C1332      C1333   1.417       .  A
C1333      C1334   1.404       .  A
C1333      N1340   1.438       .  S
C1334      C1335   1.405       .  A
C1334      H1339   1.084       .  S
C1335      C1336   1.419       .  A
C1336      N1337   1.433       .  S
N1337      H1341   1.045       .  S
N1337      H1342   1.046       .  S
N1340      H1343   1.043       .  S
N1340      H1344   1.045       .  S
