geometry optimzed in LAMMPS
_audit_creation_date              2020-11-30 
_audit_creation_method            'lammps2cif' 
_symmetry_space_group_name_H-M    'P1' 
_symmetry_Int_Tables_number       1 
_symmetry_cell_setting            triclinic 
loop_ 
_symmetry_equiv_pos_as_xyz 
  x,y,z 
_cell_length_a                    29.79554199 
_cell_length_b                    30.751805608612127 
_cell_length_c                    34.26462464951192 
_cell_angle_alpha                 92.6950040910662 
_cell_angle_beta                  88.19145553031693 
_cell_angle_gamma                 120.5328643873773 
loop_ 
_atom_site_label 
_atom_site_type_symbol 
_atom_site_fract_x 
_atom_site_fract_y 
_atom_site_fract_z 
_atom_site_charge 
In1        In  0.46125182  0.32086518  0.94140085     1.36900
C2          C  0.43034962  0.24352351  0.98736233     0.79900
O3          O  0.50471098  0.30896413  0.89001608    -0.58500
O4          O  0.54375648  0.33873677  0.94388270    -0.49400
C5          C  0.38799837  0.32120718  0.89964236     0.72600
O6          O  0.37795220  0.28620642  0.92218848    -0.44300
C7          C  0.48942067  0.40218564  0.98767767     0.77300
O8          O  0.43494716  0.23885620  0.95082758    -0.56200
O9          O  0.51077276  0.40430260  0.95488962    -0.46200
O10         O  0.43891948  0.28633141  0.99929715    -0.52600
C11         C  0.54607374  0.32491119  0.90910963     0.87500
O12         O  0.43576106  0.35265663  0.89546484    -0.54500
O13         O  0.45187979  0.35925662  0.99560342    -0.57800
In14       In  0.49660098  0.34793579  0.62311808     1.36900
C15         C  0.50726862  0.29182614  0.56621767     0.79900
O16         O  0.49117614  0.38956292  0.57350868    -0.58500
O17         O  0.55992999  0.42568837  0.60728789    -0.49400
C18         C  0.40677209  0.33879900  0.64681770     0.72600
O19         O  0.40892279  0.30209867  0.63080966    -0.44300
C20         C  0.54872228  0.34544362  0.68401972     0.77300
O21         O  0.46322110  0.28524850  0.57649625    -0.56200
O22         O  0.54859298  0.38459797  0.67505614    -0.46200
O23         O  0.54478822  0.32462322  0.58645693    -0.52600
C24         C  0.53612385  0.42714026  0.57815012     0.87500
O25         O  0.45041093  0.37682710  0.65509936    -0.54500
O26         O  0.51802921  0.30606875  0.66420089    -0.57800
In27       In  0.66136556  0.14683322  0.62278940     1.36900
C28         C  0.72999918  0.19365241  0.56570998     0.79900
O29         O  0.60804516  0.09456933  0.57602507    -0.58500
O30         O  0.58814387  0.14493739  0.60549200    -0.49400
C31         C  0.65351338  0.06423422  0.65193871     0.72600
O32         O  0.68923243  0.09159936  0.62864770    -0.44300
C33         C  0.67951073  0.22307939  0.67333777     0.77300
O34         O  0.74363043  0.18631423  0.59818189    -0.56200
O35         O  0.63540775  0.18356591  0.67034993    -0.46200
O36         O  0.68209099  0.17748840  0.56284081    -0.52600
C37         C  0.57806996  0.11232349  0.57823256     0.87500
O38         O  0.62589426  0.08238233  0.66402526    -0.54500
O39         O  0.71459887  0.22180219  0.65284944    -0.57800
In40       In  0.50451143  0.15013408  0.42380791     1.36900
C41         C  0.49169612  0.21284995  0.47224628     0.79900
O42         O  0.49170624  0.11421914  0.48158477    -0.58500
O43         O  0.55427202  0.12098861  0.44597104    -0.49400
C44         C  0.43063432  0.06560339  0.38902728     0.72600
O45         O  0.42008161  0.09079053  0.41376837    -0.44300
C46         C  0.57598738  0.21302813  0.37392587     0.77300
O47         O  0.45971509  0.18810280  0.44512697    -0.56200
O48         O  0.58296397  0.18545333  0.39594350    -0.46200
O49         O  0.53160306  0.20856944  0.47196678    -0.52600
C50         C  0.53055012  0.10849873  0.47826672     0.87500
O51         O  0.47778541  0.08652714  0.37909522    -0.54500
O52         O  0.53117217  0.20805125  0.37643608    -0.57800
In53       In  0.45997383  0.13941602  0.12979804     1.36900
C54         C  0.42873096  0.18373009  0.08156760     0.79900
O55         O  0.47894672  0.19754165  0.17972477    -0.58500
O56         O  0.54118697  0.19955679  0.14672312    -0.49400
C57         C  0.38636920  0.05385113  0.16162264     0.72600
O58         O  0.37584481  0.08109852  0.14226872    -0.44300
C59         C  0.51471256  0.11437449  0.08058167     0.77300
O60         O  0.43217567  0.14564640  0.07156705    -0.56200
O61         O  0.52497731  0.12334263  0.11652714    -0.46200
O62         O  0.43814234  0.19751136  0.11707900    -0.52600
C63         C  0.52756439  0.21975686  0.17373170     0.87500
O64         O  0.43413463  0.07290758  0.16824349    -0.54500
O65         O  0.47506130  0.11548391  0.07054574    -0.57800
In66       In  0.62886296  0.52002059  0.12290056     1.36900
C67         C  0.70171683  0.54426852  0.06750134     0.79900
O68         O  0.68485434  0.50764603  0.15706919    -0.58500
O69         O  0.60938279  0.44472392  0.14706268    -0.49400
C70         C  0.62369751  0.59191602  0.16713362     0.72600
O71         O  0.62603390  0.59261212  0.13047529    -0.44300
C72         C  0.54227324  0.47117032  0.08230190     0.77300
O73         O  0.65583408  0.50802971  0.06384973    -0.56200
O74         O  0.54565588  0.45701241  0.11561211    -0.46200
O75         O  0.71060584  0.56940992  0.09937794    -0.52600
C76         C  0.65401839  0.46112009  0.16131341     0.87500
O77         O  0.62189250  0.55390429  0.18089105    -0.54500
O78         O  0.58043539  0.51295803  0.07257216    -0.57800
C79         C  0.65698574  0.34407613  0.19915421    -0.00200
C80         C  0.66526213  0.33271298  0.31359161    -0.00200
In81       In  0.64805293  0.50093643  0.42421506     1.36900
C82         C  0.72237561  0.50764293  0.46913174     0.79900
O83         O  0.62378729  0.51452038  0.48367324    -0.58500
O84         O  0.56564058  0.45800188  0.44667927    -0.49400
C85         C  0.64365380  0.57683918  0.39397922     0.72600
O86         O  0.67846824  0.58406223  0.41760485    -0.44300
C87         C  0.63642519  0.42685517  0.37452696     0.77300
O88         O  0.73217485  0.54004446  0.44379188    -0.56200
O89         O  0.60260971  0.42282115  0.39928845    -0.46200
O90         O  0.67625469  0.47097534  0.46900819    -0.52600
C91         C  0.57731458  0.47920154  0.48013790     0.87500
O92         O  0.61544580  0.53153384  0.38233690    -0.54500
O93         O  0.67647988  0.47051725  0.37321961    -0.57800
In94       In  0.83374687  0.51065148  0.93471481     1.36900
C95         C  0.76861294  0.52990290  0.97613946     0.79900
O96         O  0.77557714  0.46136845  0.88768808    -0.58500
O97         O  0.79240361  0.42605711  0.93197250    -0.49400
C98         C  0.91018325  0.58746535  0.89741088     0.72600
O99         O  0.88519035  0.59391026  0.92499913    -0.44300
C100        C  0.89178577  0.49573782  0.98354428     0.77300
O101        O  0.76426763  0.52208072  0.93953384    -0.56200
O102        O  0.89117967  0.48578487  0.94734455    -0.46200
O103        O  0.80679706  0.52969848  0.99049329    -0.52600
C104        C  0.76659487  0.42049988  0.90189445     0.87500
O105        O  0.89093191  0.54232881  0.88519174    -0.54500
O106        O  0.86389523  0.51415512  0.99414672    -0.57800
In107      In  0.86210863  0.35840057  0.10881225     1.36900
C108        C  0.83498700  0.29289824  0.04803789     0.79900
O109        O  0.77612300  0.32882083  0.10502566    -0.58500
O110        O  0.81488381  0.37483737  0.15486052    -0.49400
C111        C  0.92304067  0.34403062  0.15628830     0.72600
O112        O  0.87416329  0.31947833  0.15794159    -0.44300
C113        C  0.90320462  0.44658078  0.07599064     0.77300
O114        O  0.82343467  0.27866501  0.08274087    -0.56200
O115        O  0.87520332  0.43685161  0.10639541    -0.46200
O116        O  0.86247895  0.33978319  0.04490563    -0.52600
C117        C  0.77250033  0.34978211  0.13648254     0.87500
O118        O  0.94116220  0.37760533  0.13133715    -0.54500
O119        O  0.91630452  0.41453670  0.06622510    -0.57800
In120      In  0.66160695  0.13676539  0.93516685     1.36900
C121        C  0.74029090  0.18272684  0.98489083     0.79900
O122        O  0.69892015  0.18761063  0.88365181    -0.58500
O123        O  0.64139199  0.19380961  0.91738569    -0.49400
C124        C  0.64486696  0.05055514  0.89952888     0.72600
O125        O  0.68750087  0.08129270  0.91538493    -0.44300
C126        C  0.58263130  0.11350608  0.98511242     0.77300
O127        O  0.70305628  0.13839264  0.98905816    -0.56200
O128        O  0.57904413  0.11786307  0.94912887    -0.46200
O129        O  0.73937607  0.20258390  0.95370025    -0.52600
C130        C  0.67257180  0.20919148  0.88876104     0.87500
O131        O  0.61327090  0.06615107  0.89874727    -0.54500
O132        O  0.62558925  0.11926848  0.99509539    -0.57800
C133        C  0.65214285  0.32128308  0.72886799    -0.00200
C134        C  0.64842158  0.31064301  0.84478180    -0.00200
In135      In  0.83441143  0.48514016  0.61768754     1.36900
C136        C  0.77894596  0.48097460  0.55730939     0.79900
O137        O  0.88863321  0.49660252  0.56782786    -0.58500
O138        O  0.86097673  0.43034177  0.60043629    -0.49400
C139        C  0.91182527  0.56126357  0.65672331     0.72600
O140        O  0.88144171  0.56763116  0.63603451    -0.44300
C141        C  0.75574858  0.43329387  0.66693279     0.77300
O142        O  0.81250147  0.52275183  0.57306662    -0.56200
O143        O  0.78948419  0.42098966  0.65841346    -0.46200
O144        O  0.77313802  0.44227847  0.57319968    -0.52600
C145        C  0.88617487  0.45483909  0.57100407     0.87500
O146        O  0.89902227  0.51578581  0.66042655    -0.54500
O147        O  0.76459459  0.47407863  0.65272470    -0.57800
In148      In  0.84093056  0.33210168  0.42148349     1.36900
C149        C  0.78409618  0.25659194  0.46889275     0.79900
O150        O  0.89090894  0.36885724  0.47375860    -0.58500
O151        O  0.87166602  0.41346616  0.44047872    -0.49400
C152        C  0.91609009  0.33011860  0.37926660     0.72600
O153        O  0.88489864  0.29363543  0.39964157    -0.44300
C154        C  0.76846300  0.34155590  0.38555858     0.77300
O155        O  0.82686899  0.29467451  0.47830339    -0.56200
O156        O  0.78084656  0.35506117  0.42074211    -0.46200
O157        O  0.77117755  0.25502811  0.43387663    -0.52600
C158        C  0.89218676  0.41006483  0.47093828     0.87500
O159        O  0.90480946  0.36420906  0.37705805    -0.54500
O160        O  0.79311831  0.32273104  0.36823893    -0.57800
In161      In  0.48027838  0.84027349  0.92852986     1.36900
C162        C  0.47692850  0.77477204  0.97802184     0.79900
O163        O  0.51238314  0.89062260  0.98178508    -0.58500
O164        O  0.43907820  0.87504349  0.96052407    -0.49400
C165        C  0.54798864  0.91719873  0.88683521     0.72600
O166        O  0.56216316  0.89169967  0.90556322    -0.44300
C167        C  0.40629904  0.77405714  0.88115082     0.77300
O168        O  0.51610779  0.79871716  0.95564940    -0.56200
O169        O  0.40131236  0.80507609  0.90357566    -0.46200
O170        O  0.43996775  0.78253753  0.97304687    -0.52600
C171        C  0.47279526  0.89488458  0.98718465     0.87500
O172        O  0.49958650  0.89955090  0.88605370    -0.54500
O173        O  0.45118278  0.77886407  0.88071575    -0.57800
In174      In  0.32475474  0.84045601  0.12348664     1.36900
C175        C  0.24613523  0.78267165  0.07538031     0.79900
O176        O  0.34661193  0.89243563  0.07377058    -0.58500
O177        O  0.40110422  0.87216099  0.09169030    -0.49400
C178        C  0.34220783  0.91958844  0.16899048     0.72600
O179        O  0.30135765  0.89535318  0.14888892    -0.44300
C180        C  0.33608319  0.77205057  0.16038318     0.77300
O181        O  0.23787608  0.79526747  0.10939367    -0.56200
O182        O  0.36678192  0.79941470  0.13426016    -0.46200
O183        O  0.29302015  0.79672717  0.06793257    -0.52600
C184        C  0.38943156  0.89441433  0.06734806     0.87500
O185        O  0.36984001  0.89949388  0.16953274    -0.54500
O186        O  0.29943486  0.78038351  0.16896381    -0.57800
In187      In  0.32011566  0.46959731  0.91785419     1.36900
C188        C  0.24458351  0.44942310  0.96913460     0.79900
O189        O  0.35628401  0.46621711  0.97372291    -0.58500
O190        O  0.39956059  0.52945264  0.93826727    -0.49400
C191        C  0.34061362  0.40434942  0.88012445     0.72600
O192        O  0.30362614  0.39068280  0.90438968    -0.44300
C193        C  0.30489914  0.52507856  0.86822973     0.77300
O194        O  0.23980498  0.41732349  0.94265816    -0.56200
O195        O  0.34594855  0.54176985  0.88771070    -0.46200
O196        O  0.28591476  0.49176550  0.96725971    -0.52600
C197        C  0.39689780  0.50858010  0.96972937     0.87500
O198        O  0.36362283  0.45036383  0.87251767    -0.54500
O199        O  0.27166832  0.47927305  0.87335136    -0.57800
In200      In  0.49276698  0.64650185  0.11448179     1.36900
C201        C  0.50690499  0.70815672  0.05663811     0.79900
O202        O  0.49517669  0.60429865  0.06072188    -0.58500
O203        O  0.43497810  0.56382644  0.10218687    -0.49400
C204        C  0.57216087  0.65786477  0.15693060     0.72600
O205        O  0.53627501  0.61488317  0.14527293    -0.44300
C206        C  0.43009437  0.65766982  0.16737797     0.77300
O207        O  0.54307221  0.70272809  0.06898348    -0.56200
O208        O  0.41458328  0.61922356  0.14477975    -0.46200
O209        O  0.46447061  0.68401383  0.07507577    -0.52600
C210        C  0.45343600  0.56422263  0.06839700     0.87500
O211        O  0.56809172  0.69407951  0.14577897    -0.54500
O212        O  0.47776859  0.68976120  0.16360459    -0.57800
In213      In  0.31423350  0.46748236  0.60901130     1.36900
C214        C  0.24573364  0.43919749  0.55081409     0.79900
O215        O  0.25784533  0.48238233  0.64544962    -0.58500
O216        O  0.33880166  0.53530217  0.64865645    -0.49400
C217        C  0.33686585  0.40819441  0.64872366     0.72600
O218        O  0.30790947  0.39175801  0.61918061    -0.44300
C219        C  0.39691135  0.51860176  0.56358946     0.77300
O220        O  0.23425169  0.41446883  0.58173334    -0.56200
O221        O  0.38418785  0.53954859  0.59060013    -0.46200
O222        O  0.29000009  0.47835948  0.55115181    -0.52600
C223        C  0.29362361  0.52392076  0.65978212     0.87500
O224        O  0.35023318  0.45267670  0.65923350    -0.54500
O225        O  0.37037382  0.47098754  0.56209706    -0.57800
In226      In  0.11988830  0.47070368  0.11751612     1.36900
C227        C  0.18379314  0.46755910  0.06339707     0.79900
O228        O  0.08250976  0.46981126  0.06160030    -0.58500
O229        O  0.09949958  0.52932606  0.10345731    -0.49400
C230        C  0.04442798  0.39194357  0.15456533     0.72600
O231        O  0.08514692  0.39352814  0.14151429    -0.44300
C232        C  0.18714579  0.52699541  0.17359523     0.77300
O233        O  0.13823333  0.43054309  0.06795840    -0.56200
O234        O  0.15912646  0.54044482  0.15694962    -0.46200
O235        O  0.19668134  0.50405954  0.08739689    -0.52600
C236        C  0.08451122  0.51122778  0.06934487     0.87500
O237        O  0.04154828  0.43040155  0.14800717    -0.54500
O238        O  0.17812578  0.48337154  0.16344986    -0.57800
In239      In  0.48912874  0.64733148  0.41561706     1.36900
C240        C  0.49592002  0.71362877  0.47084677     0.79900
O241        O  0.48672185  0.69724966  0.36961579    -0.58500
O242        O  0.41809045  0.62793252  0.38250372    -0.49400
C243        C  0.55544417  0.62568196  0.37904885     0.72600
O244        O  0.57122193  0.66628266  0.39925972    -0.44300
C245        C  0.44821817  0.57290615  0.46539388     0.77300
O246        O  0.53593189  0.71181490  0.45969754    -0.56200
O247        O  0.42748864  0.56910443  0.43289805    -0.46200
O248        O  0.45502728  0.68431850  0.45229232    -0.52600
C249        C  0.43827088  0.66843416  0.36416353     0.87500
O250        O  0.50694354  0.60011012  0.37424596    -0.54500
O251        O  0.49079328  0.61320784  0.47115012    -0.57800
C252        C  0.31451220  0.66866443  0.33117260    -0.00200
C253        C  0.30490155  0.65017976  0.21455409    -0.00200
In254      In  0.30928378  0.84840983  0.43712451     1.36900
C255        C  0.23559790  0.79632481  0.48955788     0.79900
O256        O  0.26840844  0.79236550  0.38680474    -0.58500
O257        O  0.33803226  0.79951927  0.40764624    -0.49400
C258        C  0.32910224  0.93321111  0.40471023     0.72600
O259        O  0.28851522  0.90748102  0.42476244    -0.44300
C260        C  0.38183892  0.89242966  0.49121402     0.77300
O261        O  0.22625902  0.81417028  0.46041793    -0.56200
O262        O  0.38699996  0.86906302  0.46161601    -0.46200
O263        O  0.28037297  0.80181573  0.48970086    -0.52600
C264        C  0.30100465  0.77765708  0.38378916     0.87500
O265        O  0.35596790  0.91261808  0.39774534    -0.54500
O266        O  0.34211773  0.89684042  0.49112795    -0.57800
In267      In  0.49546215  0.84683817  0.61708272     1.36900
C268        C  0.51393479  0.78939563  0.56687406     0.79900
O269        O  0.46374081  0.77917698  0.65540733    -0.58500
O270        O  0.41800008  0.81316187  0.64783005    -0.49400
C271        C  0.56169371  0.92839360  0.65956038     0.72600
O272        O  0.57721947  0.90744560  0.63454509    -0.44300
C273        C  0.47342225  0.88968699  0.56100592     0.77300
O274        O  0.54441027  0.81283124  0.59515159    -0.56200
O275        O  0.44217657  0.86722692  0.58860822    -0.46200
O276        O  0.47334973  0.79252453  0.56700333    -0.52600
C277        C  0.42147332  0.77839587  0.66281301     0.87500
O278        O  0.51344845  0.90440052  0.66582725    -0.54500
O279        O  0.51727187  0.89358807  0.56370882    -0.57800
In280      In  0.13536947  0.47025882  0.41087226     1.36900
C281        C  0.19661562  0.45094457  0.45284684     0.79900
O282        O  0.18784409  0.49175094  0.35799131    -0.58500
O283        O  0.18030675  0.54901479  0.39003081    -0.49400
C284        C  0.05153967  0.41189040  0.36803449     0.72600
O285        O  0.08007120  0.39564476  0.37947389    -0.44300
C286        C  0.10130182  0.49650399  0.47496120     0.77300
O287        O  0.14872509  0.41929236  0.44871741    -0.56200
O288        O  0.12029255  0.52502606  0.44633453    -0.46200
O289        O  0.21388312  0.48858117  0.43160295    -0.52600
C290        C  0.20130377  0.53800777  0.36160324     0.87500
O291        O  0.06737584  0.45741639  0.37698168    -0.54500
O292        O  0.09677242  0.45382821  0.46969757    -0.57800
In293      In  0.13113056  0.64197134  0.61917852     1.36900
C294        C  0.18185017  0.72914860  0.58394692     0.79900
O295        O  0.18738941  0.65763087  0.66800525    -0.58500
O296        O  0.19306257  0.62183772  0.61482455    -0.49400
C297        C  0.04896519  0.61459831  0.66619298     0.72600
O298        O  0.07362321  0.65793746  0.65226211    -0.44300
C299        C  0.09760741  0.58228656  0.55542655     0.77300
O300        O  0.13499023  0.69701939  0.57693606    -0.56200
O301        O  0.11147271  0.56992372  0.58540248    -0.46200
O302        O  0.20035776  0.72045020  0.61319409    -0.52600
C303        C  0.21102708  0.63926077  0.64842227     0.87500
O304        O  0.06904402  0.58774318  0.65898859    -0.54500
O305        O  0.09679615  0.62262705  0.55938582    -0.57800
In306      In  0.12832666  0.64665537  0.92513047     1.36900
C307        C  0.18439112  0.72184818  0.97687038     0.79900
O308        O  0.08714289  0.60654445  0.97959348    -0.58500
O309        O  0.11635854  0.57098630  0.94068820    -0.49400
C310        C  0.04524325  0.62985407  0.88586216     0.72600
O311        O  0.07139440  0.66988359  0.90636842    -0.44300
C312        C  0.19877880  0.65476629  0.87204778     0.77300
O313        O  0.20177560  0.71781152  0.94380664    -0.56200
O314        O  0.18677630  0.62753744  0.90154324    -0.46200
O315        O  0.13672072  0.69093061  0.98195723    -0.52600
C316        C  0.09413757  0.56985742  0.97287239     0.87500
O317        O  0.06312131  0.60064841  0.88428072    -0.54500
O318        O  0.17498077  0.67888052  0.86985831    -0.57800
C319        C  0.32392654  0.65089817  0.71076981    -0.00200
C320        C  0.31505203  0.64485982  0.82684873    -0.00200
C321        C  0.33449671  0.66435709  0.75435252    -0.14100
C322        C  0.30391381  0.63386011  0.78291005    -0.29300
H323        H  0.36910875  0.69989577  0.76237287     0.14900
H324        H  0.27005112  0.59793910  0.77424607     0.15500
C325        C  0.23899534  0.65929417  0.84328668    -0.14100
C326        C  0.26581994  0.63583257  0.84924875    -0.29300
H327        H  0.24984323  0.68507530  0.81953592     0.14900
H328        H  0.25330452  0.61052818  0.87356314     0.15500
C329        C  0.25754290  0.63954689  0.66192872    -0.14100
C330        C  0.27327022  0.64830231  0.69934393    -0.29300
H331        H  0.28007904  0.63209036  0.63990288     0.14900
H332        H  0.25050403  0.65520238  0.72154992     0.15500
C333        C  0.08980085  0.51276472  0.51297524    -0.14100
C334        C  0.08870613  0.55556909  0.51733595    -0.29300
H335        H  0.08856940  0.49239281  0.53843767     0.14900
H336        H  0.08856059  0.57513718  0.49177971     0.15500
C337        C  0.37877668  0.74003483  0.68674807    -0.14100
C338        C  0.36933019  0.69240423  0.68769792    -0.29300
H339        H  0.35245615  0.75005079  0.70175044     0.14900
H340        H  0.39461963  0.68290615  0.67037313     0.15500
C341        C  0.21463921  0.76926480  0.55692428    -0.14100
C342        C  0.19779971  0.77039868  0.52113587    -0.29300
H343        H  0.25585083  0.79231475  0.56364973     0.14900
H344        H  0.15665529  0.74839940  0.51403431     0.15500
C345        C  0.41437854  0.90659054  0.52605263    -0.14100
C346        C  0.45778087  0.90401611  0.52589616    -0.29300
H347        H  0.39698838  0.90947973  0.55368237     0.14900
H348        H  0.47644564  0.90296394  0.49840538     0.15500
C349        C  0.26001533  0.62641545  0.34369554    -0.14100
C350        C  0.24172180  0.57663887  0.33644786    -0.29300
H351        H  0.23835879  0.63636631  0.36486041     0.14900
H352        H  0.26234993  0.56416540  0.31660146     0.15500
C353        C  0.32602699  0.71673193  0.35535617    -0.14100
C354        C  0.29499396  0.73705693  0.35535966    -0.29300
H355        H  0.35858877  0.73319870  0.37556799     0.14900
H356        H  0.26177656  0.72077278  0.33582436     0.15500
C357        C  0.31702062  0.67852966  0.28735505    -0.14100
C358        C  0.30920782  0.64391606  0.25833273    -0.29300
H359        H  0.32422335  0.71538733  0.27962688     0.14900
H360        H  0.30443271  0.60804312  0.26612278     0.15500
C361        C  0.49409624  0.74590495  0.50307992    -0.14100
C362        C  0.52462847  0.76175439  0.53483690    -0.29300
H363        H  0.46189341  0.75293893  0.50198921     0.14900
H364        H  0.55649272  0.75449351  0.53710753     0.15500
C365        C  0.40616302  0.68248755  0.34127642    -0.14100
C366        C  0.35377499  0.65323498  0.34264083    -0.29300
H367        H  0.42435821  0.71907552  0.32816526     0.14900
H368        H  0.33817262  0.61752511  0.35686949     0.15500
C369        C  0.23068912  0.56090532  0.19978671    -0.14100
C370        C  0.24978027  0.61117463  0.20093552    -0.29300
H371        H  0.25270590  0.54598709  0.21243624     0.14900
H372        H  0.22698680  0.62467381  0.18722274     0.15500
C373        C  0.07568355  0.53920667  0.03971387    -0.14100
C374        C  0.08147241  0.53087464  0.00146846    -0.29300
H375        H  0.07455574  0.57279901  0.04941938     0.14900
H376        H  0.08609625  0.49909706  0.99205737     0.15500
C377        C  0.21068905  0.42534320  0.51690102    -0.14100
C378        C  0.22972357  0.44839059  0.48270219    -0.29300
H379        H  0.16908446  0.40023415  0.52102490     0.14900
H380        H  0.27142974  0.47398856  0.47951177     0.15500
C381        C  0.32399648  0.60170753  0.70057153    -0.14100
C382        C  0.28380804  0.55878798  0.68487005    -0.29300
H383        H  0.36165454  0.60415200  0.70192637     0.14900
H384        H  0.24451261  0.55241088  0.68563162     0.15500
C385        C  0.43473107  0.54814401  0.53336653    -0.14100
C386        C  0.42274145  0.53511116  0.49549121    -0.29300
H387        H  0.46594987  0.58587520  0.54164407     0.14900
H388        H  0.38827443  0.49936932  0.48739124     0.15500
C389        C  0.39536124  0.66578012  0.19502477    -0.14100
C390        C  0.34319629  0.63917254  0.19105742    -0.29300
H391        H  0.41276215  0.69700382  0.21648242     0.14900
H392        H  0.32743870  0.60926704  0.16837925     0.15500
C393        C  0.20611799  0.43878202  0.00077329    -0.14100
C394        C  0.21978893  0.47067385  0.03208245    -0.29300
H395        H  0.16736109  0.40570185  0.99846319     0.14900
H396        H  0.25899907  0.50328852  0.03384892     0.15500
C397        C  0.43629041  0.53447458  0.00035440    -0.14100
C398        C  0.42491535  0.52410822  0.03834866    -0.29300
H399        H  0.47136881  0.56914478  0.99229989     0.14900
H400        H  0.38846189  0.49108669  0.04671764     0.15500
C401        C  0.29523150  0.55722527  0.84320740    -0.14100
C402        C  0.32917891  0.60734654  0.84193301    -0.29300
H403        H  0.25728162  0.54093427  0.82966065     0.14900
H404        H  0.36666063  0.62223631  0.85611176     0.15500
C405        C  0.20535705  0.75428028  0.04574063    -0.14100
C406        C  0.21891088  0.75713652  0.00758502    -0.29300
H407        H  0.16532064  0.72971181  0.05508480     0.15700
H408        H  0.25913019  0.78260543  0.99899295     0.15500
C409        C  0.31129389  0.70175942  0.20543030    -0.14100
C410        C  0.34197715  0.73160632  0.17672809    -0.29300
H411        H  0.28391524  0.71104773  0.21959946     0.14900
H412        H  0.36940226  0.72370258  0.16127330     0.15500
C413        C  0.47294013  0.74112661  0.00895189    -0.14100
C414        C  0.51360139  0.73958288  0.02302744    -0.29300
H415        H  0.43485232  0.71907338  0.02261837     0.14900
H416        H  0.55212174  0.76190759  0.01009644     0.15500
C417        C  0.46345402  0.91429104  0.02457607    -0.14100
C418        C  0.41880589  0.91395118  0.03093357    -0.29300
H419        H  0.48596408  0.91517273  0.04928386     0.14900
H420        H  0.39703353  0.91466965  0.00635799     0.15500
C421        C  0.36229976  0.69774119  0.83665265    -0.14100
C422        C  0.36059641  0.73285787  0.86076073    -0.29300
H423        H  0.40043653  0.70456830  0.82704622     0.14900
H424        H  0.32392706  0.72891561  0.87047839     0.15500
C425        C  0.96613902  0.33659780  0.36471079    -0.14100
C426        C  0.00074897  0.38069212  0.34926717    -0.29300
H427        H  0.97996207  0.31463442  0.37871151     0.14900
H428        H  0.98604200  0.40206622  0.33546840     0.15500
C429        C  0.96241760  0.60350481  0.67031976    -0.14100
C430        C  0.99721717  0.59309952  0.68464439    -0.29300
H431        H  0.97605891  0.63948600  0.65686719     0.14900
H432        H  0.98300937  0.55677460  0.69770717     0.15500
C433        C  0.90478242  0.43306633  0.54006754    -0.14100
C434        C  0.90891328  0.44797458  0.50316622    -0.29300
H435        H  0.90079365  0.39671048  0.54547483     0.14900
H436        H  0.90971674  0.48287280  0.49761490     0.15500
C437        C  0.70297471  0.36738050  0.71452978    -0.14100
C438        C  0.70668916  0.40000939  0.68785324    -0.29300
H439        H  0.73914583  0.37207061  0.72539067     0.14900
H440        H  0.67264921  0.39976085  0.67759637     0.15500
C441        C  0.64859911  0.32910844  0.77319314    -0.14100
C442        C  0.64844289  0.29887103  0.80075811    -0.29300
H443        H  0.64773906  0.36277013  0.78305795     0.14900
H444        H  0.64891021  0.26485602  0.79156128     0.15500
C445        C  0.58357935  0.96751555  0.87155900    -0.14100
C446        C  0.63002700  0.99807092  0.88811124    -0.29300
H447        H  0.56484489  0.98453809  0.85673669     0.14900
H448        H  0.64961210  0.98196760  0.90299065     0.15500
C449        C  0.64405418  0.26640786  0.86710092    -0.14100
C450        C  0.67808911  0.24973342  0.86381186    -0.29300
H451        H  0.61127896  0.24719827  0.88715870     0.14900
H452        H  0.71058878  0.26671805  0.84335358     0.15500
C453        C  0.95452732  0.33157913  0.18089471    -0.14100
C454        C  0.00621994  0.34981325  0.17823253    -0.29300
H455        H  0.93273147  0.30109175  0.20082687     0.14900
H456        H  0.02183951  0.33172499  0.19532965     0.15500
C457        C  0.81400911  0.25910754  0.01330999    -0.14100
C458        C  0.77794423  0.21029526  0.01631442    -0.29300
H459        H  0.82159064  0.27663505  0.98519362     0.14900
H460        H  0.77001966  0.19274372  0.04444314     0.15500
C461        C  0.96255101  0.62769881  0.88594764    -0.14100
C462        C  0.99460321  0.61411182  0.86839750    -0.29300
H463        H  0.97900996  0.66260013  0.90363336     0.14900
H464        H  0.97781699  0.57887902  0.85111311     0.15500
C465        C  0.91812801  0.48177283  0.01173229    -0.14100
C466        C  0.91154598  0.48698411  0.05034477    -0.29300
H467        H  0.93188083  0.45675028  0.00092662     0.14900
H468        H  0.89688083  0.51138641  0.06085364     0.15500
C469        C  0.69721496  0.36165780  0.85552006    -0.14100
C470        C  0.72765950  0.36966628  0.88655881    -0.29300
H471        H  0.70370200  0.39434088  0.83988414     0.14900
H472        H  0.72129202  0.33848099  0.90397456     0.15500
C473        C  0.63201516  0.61673563  0.38551756    -0.14100
C474        C  0.58855464  0.60481038  0.36611728    -0.29300
H475        H  0.65090453  0.65123105  0.40364120     0.14900
H476        H  0.56935969  0.56963347  0.34880385     0.15500
C477        C  0.76017168  0.51321683  0.49862542    -0.14100
C478        C  0.74721052  0.47617463  0.52364142    -0.29300
H479        H  0.79694828  0.54861554  0.50145848     0.14900
H480        H  0.71123667  0.44023592  0.51951469     0.15500
C481        C  0.71563380  0.33793348  0.32911292    -0.14100
C482        C  0.72657982  0.34581702  0.36763760    -0.29300
H483        H  0.74161230  0.33245342  0.30917413     0.14900
H484        H  0.70139440  0.35252957  0.38748163     0.15500
C485        C  0.66533165  0.38126091  0.32744442    -0.14100
C486        C  0.62920150  0.38183599  0.35186045    -0.29300
H487        H  0.69942349  0.41712011  0.32013858     0.14900
H488        H  0.59458808  0.34702739  0.35973924     0.15500
C489        C  0.72219544  0.34512077  0.14927676    -0.14100
C490        C  0.71176645  0.35542698  0.18607348    -0.29300
H491        H  0.69124975  0.32965538  0.12783342     0.14900
H492        H  0.74254270  0.36975016  0.20762910     0.15500
C493        C  0.65618012  0.35310910  0.24347506    -0.14100
C494        C  0.66533559  0.32631229  0.26904128    -0.29300
H495        H  0.64739000  0.38167449  0.25446322     0.14900
H496        H  0.67173964  0.29642635  0.25722188     0.15500
C497        C  0.62930650  0.63439465  0.19250182    -0.14100
C498        C  0.61280026  0.66645645  0.18488972    -0.29300
H499        H  0.65311581  0.64293032  0.21826754     0.14900
H500        H  0.62696728  0.70015743  0.20376990     0.15500
C501        C  0.74233613  0.55379608  0.03806523    -0.14100
C502        C  0.73046143  0.53518000  0.00110909    -0.29300
H503        H  0.78242123  0.57231138  0.04794078     0.14900
H504        H  0.69091040  0.51885812  0.99054286     0.15500
C505        C  0.64234835  0.37823041  0.17823048    -0.14100
C506        C  0.66980389  0.42912597  0.18126577    -0.29300
H507        H  0.60778213  0.36056007  0.16006618     0.14900
H508        H  0.70545809  0.44780365  0.19812478     0.15500
C509        C  0.34697015  0.00126096  0.17040500    -0.14100
C510        C  0.36161165  0.97101377  0.18563175    -0.29300
H511        H  0.31041447  0.98470990  0.15477345     0.14900
H512        H  0.39857022  0.98802237  0.20081315     0.15500
C513        C  0.54130658  0.10572987  0.01347459    -0.14100
C514        C  0.54868195  0.10722350  0.05216934    -0.29300
H515        H  0.50680004  0.10448796  0.00259566     0.14900
H516        H  0.58365836  0.10940126  0.06305126     0.15500
C517        C  0.61702996  0.28880602  0.18816415    -0.14100
C518        C  0.56522371  0.26759690  0.19442954    -0.29300
H519        H  0.63064801  0.26634287  0.17204414     0.14900
H520        H  0.55026439  0.28823310  0.21149626     0.15500
C521        C  0.34775285  0.98606819  0.39536721    -0.14100
C522        C  0.39350630  0.01300321  0.37671056    -0.29300
H523        H  0.33103578  0.00537450  0.41214328     0.14900
H524        H  0.40974615  0.99328708  0.35985294     0.15500
C525        C  0.61920601  0.24979544  0.34966104    -0.14100
C526        C  0.61695243  0.28466602  0.32866796    -0.29300
H527        H  0.65564297  0.25046059  0.35262768     0.14900
H528        H  0.57881877  0.27953734  0.32309153     0.15500
C529        C  0.64033201  0.01206756  0.65904768    -0.14100
C530        C  0.59470911  0.98004390  0.67605942    -0.29300
H531        H  0.66020752  0.99707670  0.64079637     0.14900
H532        H  0.57475758  0.99526361  0.69396051     0.15500
C533        C  0.75041656  0.21930240  0.49760547    -0.14100
C534        C  0.76696258  0.22107220  0.53411353    -0.29300
H535        H  0.71001761  0.19326087  0.48987211     0.14900
H536        H  0.80769240  0.24582895  0.54159058     0.15500
C537        C  0.68928086  0.26939829  0.69550228    -0.14100
C538        C  0.65227701  0.27211938  0.71754966    -0.29300
H539        H  0.72596906  0.30301723  0.68894519     0.14900
H540        H  0.61680997  0.23687335  0.72400659     0.15500
C541        C  0.54007657  0.10228688  0.54787394    -0.14100
C542        C  0.55016935  0.09359632  0.51072731    -0.29300
H543        H  0.51175573  0.11408219  0.55408050     0.14900
H544        H  0.58160110  0.08608238  0.50428299     0.15500
C545        C  0.35990389  0.38169851  0.66696773    -0.14100
C546        C  0.35838062  0.34088933  0.64974188    -0.29300
H547        H  0.39019414  0.40414946  0.68821753     0.14900
H548        H  0.32787760  0.31743347  0.62894823     0.15500
C549        C  0.56129627  0.46678647  0.54957568    -0.14100
C550        C  0.54163601  0.45923636  0.51354190    -0.29300
H551        H  0.60148977  0.49597782  0.55512717     0.14900
H552        H  0.50224558  0.42853709  0.50759526     0.15500
C553        C  0.51561009  0.26420698  0.53323678    -0.14100
C554        C  0.48211147  0.24208797  0.50343540    -0.29300
H555        H  0.55178881  0.26363663  0.53295674     0.14900
H556        H  0.44652363  0.24364296  0.50289932     0.15500
C557        C  0.60324797  0.31466873  0.70922298    -0.14100
C558        C  0.58599535  0.34753200  0.71269484    -0.29300
H559        H  0.58262465  0.28249892  0.68886821     0.14900
H560        H  0.60619908  0.38105415  0.73166005     0.15500
C561        C  0.34719228  0.32919036  0.88456084    -0.14100
C562        C  0.36112056  0.37186564  0.86622962    -0.29300
H563        H  0.30947443  0.30944822  0.89913973     0.14900
H564        H  0.39849162  0.39086119  0.85106913     0.15500
C565        C  0.51061093  0.44524588  0.01589958    -0.14100
C566        C  0.50122133  0.43803510  0.05444639    -0.29300
H567        H  0.54307672  0.48060580  0.00586892     0.14900
H568        H  0.47047248  0.40179354  0.06458951     0.15500
C569        C  0.41924008  0.21269830  0.05346407    -0.14100
C570        C  0.42011214  0.20389838  0.01465708    -0.29300
H571        H  0.41945984  0.24646135  0.06467844     0.14900
H572        H  0.42063514  0.17059356  0.00324747     0.15500
C573        C  0.60063968  0.31488736  0.85635586    -0.14100
C574        C  0.59350118  0.32620166  0.89375442    -0.29300
H575        H  0.57110730  0.30666163  0.83478887     0.14900
H576        H  0.62349078  0.33491498  0.91500583     0.15500
loop_ 
_geom_bond_atom_site_label_1 
_geom_bond_atom_site_label_2 
_geom_bond_distance 
_geom_bond_site_symmetry_2 
_ccdc_geom_bond_type 
In1           O3   2.278       .  S
In1           O4   2.233       .  S
In1          O12   2.233       .  S
In1           O6   2.254       .  S
In1           O8   2.265       .  S
In1           O9   2.249       .  S
In1          O10   2.214       .  S
In1          O13   2.240       .  S
C2            O8   1.264       .  A
C2           O10   1.257       .  A
C2          C570   1.471   1_556  S
O3           C11   1.263       .  A
O4           C11   1.258       .  A
C5           O12   1.258       .  A
C5            O6   1.257       .  A
C5          C561   1.470       .  S
C7            O9   1.261       .  A
C7           O13   1.258       .  A
C7          C565   1.468   1_556  S
C11         C574   1.474       .  S
In14         O16   2.233       .  S
In14         O17   2.246       .  S
In14         O25   2.223       .  S
In14         O19   2.265       .  S
In14         O21   2.263       .  S
In14         O22   2.247       .  S
In14         O23   2.236       .  S
In14         O26   2.260       .  S
C15          O21   1.263       .  A
C15          O23   1.259       .  A
C15         C553   1.472       .  S
O16          C24   1.256       .  A
O17          C24   1.258       .  A
C18          O25   1.259       .  A
C18          O19   1.262       .  A
C18         C546   1.476       .  S
C20          O22   1.258       .  A
C20          O26   1.265       .  A
C20         C558   1.481       .  S
C24         C549   1.464       .  S
In27         O29   2.236       .  S
In27         O30   2.250       .  S
In27         O38   2.254       .  S
In27         O32   2.256       .  S
In27         O34   2.266       .  S
In27         O35   2.273       .  S
In27         O36   2.236       .  S
In27         O39   2.249       .  S
C28          O34   1.265       .  A
C28          O36   1.256       .  A
C28         C534   1.471       .  S
O29          C37   1.260       .  A
O30          C37   1.262       .  A
C31          O38   1.258       .  A
C31          O32   1.256       .  A
C31         C529   1.476       .  S
C33          O35   1.260       .  A
C33          O39   1.257       .  A
C33         C537   1.477       .  S
C37         C541   1.466       .  S
In40         O42   2.239       .  S
In40         O43   2.250       .  S
In40         O51   2.241       .  S
In40         O45   2.260       .  S
In40         O47   2.263       .  S
In40         O48   2.221       .  S
In40         O49   2.222       .  S
In40         O52   2.278       .  S
C41          O47   1.266       .  A
C41          O49   1.261       .  A
C41         C554   1.478       .  S
O42          C50   1.257       .  A
O43          C50   1.260       .  A
C44          O51   1.255       .  A
C44          O45   1.259       .  A
C44         C522   1.472       .  S
C46          O48   1.257       .  A
C46          O52   1.265       .  A
C46         C525   1.473       .  S
C50         C542   1.466       .  S
In53         O55   2.278       .  S
In53         O56   2.248       .  S
In53         O64   2.258       .  S
In53         O58   2.263       .  S
In53         O60   2.237       .  S
In53         O61   2.258       .  S
In53         O62   2.253       .  S
In53         O65   2.237       .  S
C54          O60   1.258       .  A
C54          O62   1.261       .  A
C54         C569   1.468       .  S
O55          C63   1.263       .  A
O56          C63   1.259       .  A
C57          O64   1.257       .  A
C57          O58   1.254       .  A
C57         C509   1.476       .  S
C59          O61   1.262       .  A
C59          O65   1.258       .  A
C59         C514   1.471       .  S
C63         C518   1.484       .  S
In66         O68   2.260       .  S
In66         O69   2.273       .  S
In66         O77   2.253       .  S
In66         O71   2.279       .  S
In66         O73   2.237       .  S
In66         O74   2.253       .  S
In66         O75   2.263       .  S
In66         O78   2.215       .  S
C67          O73   1.255       .  A
C67          O75   1.262       .  A
C67         C501   1.469       .  S
O68          C76   1.260       .  A
O69          C76   1.264       .  A
C70          O77   1.256       .  A
C70          O71   1.256       .  A
C70         C497   1.473       .  S
C72          O74   1.265       .  A
C72          O78   1.260       .  A
C72         C566   1.470       .  S
C76         C506   1.487       .  S
C79         C490   1.542       .  S
C79         C493   1.533       .  S
C79         C505   1.537       .  S
C79         C517   1.536       .  S
C80         C481   1.536       .  S
C80         C485   1.544       .  S
C80         C494   1.530       .  S
C80         C526   1.545       .  S
In81         O83   2.232       .  S
In81         O84   2.247       .  S
In81         O92   2.243       .  S
In81         O86   2.257       .  S
In81         O88   2.269       .  S
In81         O89   2.216       .  S
In81         O90   2.216       .  S
In81         O93   2.281       .  S
C82          O88   1.266       .  A
C82          O90   1.259       .  A
C82         C477   1.476       .  S
O83          C91   1.258       .  A
O84          C91   1.259       .  A
C85          O92   1.259       .  A
C85          O86   1.258       .  A
C85         C473   1.477       .  S
C87          O89   1.257       .  A
C87          O93   1.266       .  A
C87         C486   1.474       .  S
C91         C550   1.464       .  S
In94         O96   2.275       .  S
In94         O97   2.241       .  S
In94        O105   2.240       .  S
In94         O99   2.253       .  S
In94        O101   2.269       .  S
In94        O102   2.260       .  S
In94        O103   2.217       .  S
In94        O106   2.228       .  S
C95         O101   1.264       .  A
C95         O103   1.257       .  A
C95         C502   1.471   1_556  S
O96         C104   1.263       .  A
O97         C104   1.258       .  A
C98         O105   1.258       .  A
C98          O99   1.255       .  A
C98         C461   1.471       .  S
C100        O102   1.262       .  A
C100        O106   1.258       .  A
C100        C465   1.471   1_556  S
C104        C470   1.478       .  S
In107       O109   2.247       .  S
In107       O110   2.287       .  S
In107       O118   2.270       .  S
In107       O112   2.249       .  S
In107       O114   2.264       .  S
In107       O115   2.245       .  S
In107       O116   2.238       .  S
In107       O119   2.230       .  S
C108        O114   1.263       .  A
C108        O116   1.253       .  A
C108        C457   1.469       .  S
O109        C117   1.260       .  A
O110        C117   1.265       .  A
C111        O118   1.255       .  A
C111        O112   1.255       .  A
C111        C453   1.477       .  S
C113        O115   1.262       .  A
C113        O119   1.260       .  A
C113        C466   1.467       .  S
C117        C489   1.485       .  S
In120       O122   2.273       .  S
In120       O123   2.238       .  S
In120       O131   2.242       .  S
In120       O125   2.272       .  S
In120       O127   2.238       .  S
In120       O128   2.262       .  S
In120       O129   2.253       .  S
In120       O132   2.244       .  S
C121        O127   1.258       .  A
C121        O129   1.263       .  A
C121        C458   1.470   1_556  S
O122        C130   1.264       .  A
O123        C130   1.260       .  A
C124        O131   1.256       .  A
C124        O125   1.256       .  A
C124        C446   1.476   1_545  S
C126        O128   1.260       .  A
C126        O132   1.256       .  A
C126        C513   1.471   1_556  S
C130        C450   1.482       .  S
C133        C437   1.543       .  S
C133        C441   1.535       .  S
C133        C538   1.545       .  S
C133        C557   1.538       .  S
C134        C442   1.535       .  S
C134        C449   1.538       .  S
C134        C469   1.540       .  S
C134        C573   1.533       .  S
In135       O137   2.226       .  S
In135       O138   2.247       .  S
In135       O146   2.223       .  S
In135       O140   2.256       .  S
In135       O142   2.258       .  S
In135       O143   2.256       .  S
In135       O144   2.222       .  S
In135       O147   2.246       .  S
C136        O142   1.267       .  A
C136        O144   1.260       .  A
C136        C478   1.469       .  S
O137        C145   1.258       .  A
O138        C145   1.264       .  A
C139        O146   1.261       .  A
C139        O140   1.263       .  A
C139        C429   1.475       .  S
C141        O143   1.263       .  A
C141        O147   1.262       .  A
C141        C438   1.477       .  S
C145        C433   1.467       .  S
In148       O150   2.230       .  S
In148       O151   2.254       .  S
In148       O159   2.228       .  S
In148       O153   2.259       .  S
In148       O155   2.227       .  S
In148       O156   2.234       .  S
In148       O157   2.270       .  S
In148       O160   2.267       .  S
C149        O155   1.254       .  A
C149        O157   1.263       .  A
C149        C533   1.471       .  S
O150        C158   1.257       .  A
O151        C158   1.261       .  A
C152        O159   1.259       .  A
C152        O153   1.258       .  A
C152        C425   1.474       .  S
C154        O156   1.260       .  A
C154        O160   1.265       .  A
C154        C482   1.474       .  S
C158        C434   1.466       .  S
In161       O163   2.232       .  S
In161       O164   2.234       .  S
In161       O172   2.214       .  S
In161       O166   2.269       .  S
In161       O168   2.280       .  S
In161       O169   2.212       .  S
In161       O170   2.212       .  S
In161       O173   2.267       .  S
C162        O168   1.271       .  A
C162        O170   1.258       .  A
C162        C413   1.476   1_556  S
O163        C171   1.258       .  A
O164        C171   1.264       .  A
C165        O172   1.257       .  A
C165        O166   1.267       .  A
C165        C445   1.472       .  S
C167        O169   1.261       .  A
C167        O173   1.268       .  A
C167        C422   1.474       .  S
C171        C417   1.466   1_556  S
In174       O176   2.238       .  S
In174       O177   2.237       .  S
In174       O185   2.231       .  S
In174       O179   2.261       .  S
In174       O181   2.286       .  S
In174       O182   2.231       .  S
In174       O183   2.215       .  S
In174       O186   2.278       .  S
C175        O181   1.267       .  A
C175        O183   1.256       .  A
C175        C405   1.479       .  S
O176        C184   1.259       .  A
O177        C184   1.264       .  A
C178        O185   1.257       .  A
C178        O179   1.263       .  A
C178        C510   1.472       .  S
C180        O182   1.258       .  A
C180        O186   1.265       .  A
C180        C410   1.478       .  S
C184        C418   1.467       .  S
In187       O189   2.258       .  S
In187       O190   2.244       .  S
In187       O198   2.238       .  S
In187       O192   2.245       .  S
In187       O194   2.264       .  S
In187       O195   2.239       .  S
In187       O196   2.204       .  S
In187       O199   2.262       .  S
C188        O194   1.264       .  A
C188        O196   1.261       .  A
C188        C393   1.473   1_556  S
O189        C197   1.259       .  A
O190        C197   1.260       .  A
C191        O198   1.256       .  A
C191        O192   1.260       .  A
C191        C562   1.468       .  S
C193        O195   1.260       .  A
C193        O199   1.261       .  A
C193        C401   1.476       .  S
C197        C397   1.471   1_556  S
In200       O202   2.224       .  S
In200       O203   2.259       .  S
In200       O211   2.235       .  S
In200       O205   2.281       .  S
In200       O207   2.267       .  S
In200       O208   2.270       .  S
In200       O209   2.252       .  S
In200       O212   2.269       .  S
C201        O207   1.259       .  A
C201        O209   1.260       .  A
C201        C414   1.481       .  S
O202        C210   1.260       .  A
O203        C210   1.264       .  A
C204        O211   1.257       .  A
C204        O205   1.261       .  A
C204        C498   1.476       .  S
C206        O208   1.262       .  A
C206        O212   1.259       .  A
C206        C389   1.486       .  S
C210        C398   1.475       .  S
In213       O215   2.278       .  S
In213       O216   2.231       .  S
In213       O224   2.237       .  S
In213       O218   2.282       .  S
In213       O220   2.294       .  S
In213       O221   2.238       .  S
In213       O222   2.228       .  S
In213       O225   2.249       .  S
C214        O220   1.267       .  A
C214        O222   1.255       .  A
C214        C377   1.483       .  S
O215        C223   1.265       .  A
O216        C223   1.257       .  A
C217        O224   1.252       .  A
C217        O218   1.260       .  A
C217        C545   1.473       .  S
C219        O221   1.259       .  A
C219        O225   1.261       .  A
C219        C385   1.464       .  S
C223        C382   1.480       .  S
In226       O228   2.238       .  S
In226       O229   2.250       .  S
In226       O237   2.259       .  S
In226       O231   2.239       .  S
In226       O233   2.267       .  S
In226       O234   2.252       .  S
In226       O235   2.218       .  S
In226       O238   2.251       .  S
C227        O233   1.263       .  A
C227        O235   1.256       .  A
C227        C394   1.464       .  S
O228        C236   1.260       .  A
O229        C236   1.263       .  A
C230        O237   1.259       .  A
C230        O231   1.258       .  A
C230        C454   1.474       .  S
C232        O234   1.263       .  A
C232        O238   1.260       .  A
C232        C369   1.479       .  S
C236        C373   1.473       .  S
In239       O241   2.279       .  S
In239       O242   2.220       .  S
In239       O250   2.223       .  S
In239       O244   2.266       .  S
In239       O246   2.280       .  S
In239       O247   2.255       .  S
In239       O248   2.206       .  S
In239       O251   2.230       .  S
C240        O246   1.268       .  A
C240        O248   1.257       .  A
C240        C361   1.468       .  S
O241        C249   1.267       .  A
O242        C249   1.264       .  A
C243        O250   1.258       .  A
C243        O244   1.266       .  A
C243        C474   1.473       .  S
C245        O247   1.262       .  A
C245        O251   1.257       .  A
C245        C386   1.469       .  S
C249        C365   1.489       .  S
C252        C349   1.541       .  S
C252        C353   1.542       .  S
C252        C357   1.538       .  S
C252        C366   1.536       .  S
C253        C358   1.539       .  S
C253        C370   1.532       .  S
C253        C390   1.541       .  S
C253        C409   1.545       .  S
In254       O256   2.269       .  S
In254       O257   2.264       .  S
In254       O265   2.235       .  S
In254       O259   2.257       .  S
In254       O261   2.274       .  S
In254       O262   2.247       .  S
In254       O263   2.221       .  S
In254       O266   2.230       .  S
C255        O261   1.265       .  A
C255        O263   1.257       .  A
C255        C342   1.472       .  S
O256        C264   1.263       .  A
O257        C264   1.261       .  A
C258        O265   1.260       .  A
C258        O259   1.260       .  A
C258        C521   1.474       .  S
C260        O262   1.266       .  A
C260        O266   1.258       .  A
C260        C345   1.466       .  S
C264        C354   1.486       .  S
In267       O269   2.264       .  S
In267       O270   2.243       .  S
In267       O278   2.242       .  S
In267       O272   2.267       .  S
In267       O274   2.279       .  S
In267       O275   2.243       .  S
In267       O276   2.203       .  S
In267       O279   2.249       .  S
C268        O274   1.268       .  A
C268        O276   1.261       .  A
C268        C362   1.481       .  S
O269        C277   1.265       .  A
O270        C277   1.259       .  A
C271        O278   1.255       .  A
C271        O272   1.261       .  A
C271        C530   1.474       .  S
C273        O275   1.261       .  A
C273        O279   1.256       .  A
C273        C346   1.467       .  S
C277        C337   1.477       .  S
In280       O282   2.247       .  S
In280       O283   2.231       .  S
In280       O291   2.214       .  S
In280       O285   2.275       .  S
In280       O287   2.270       .  S
In280       O288   2.249       .  S
In280       O289   2.241       .  S
In280       O292   2.236       .  S
C281        O287   1.262       .  A
C281        O289   1.259       .  A
C281        C378   1.475       .  S
O282        C290   1.267       .  A
O283        C290   1.265       .  A
C284        O291   1.255       .  A
C284        O285   1.264       .  A
C284        C426   1.467       .  S
C286        O288   1.262       .  A
C286        O292   1.254       .  A
C286        C333   1.466       .  S
C290        C350   1.477       .  S
In293       O295   2.263       .  S
In293       O296   2.224       .  S
In293       O304   2.232       .  S
In293       O298   2.268       .  S
In293       O300   2.235       .  S
In293       O301   2.253       .  S
In293       O302   2.255       .  S
In293       O305   2.235       .  S
C294        O300   1.257       .  A
C294        O302   1.261       .  A
C294        C341   1.469       .  S
O295        C303   1.267       .  A
O296        C303   1.260       .  A
C297        O304   1.255       .  A
C297        O298   1.260       .  A
C297        C430   1.468   1_455  S
C299        O301   1.262       .  A
C299        O305   1.254       .  A
C299        C334   1.466       .  S
C303        C329   1.471       .  S
In306       O308   2.246       .  S
In306       O309   2.256       .  S
In306       O317   2.220       .  S
In306       O311   2.268       .  S
In306       O313   2.253       .  S
In306       O314   2.222       .  S
In306       O315   2.268       .  S
In306       O318   2.261       .  S
C307        O313   1.258       .  A
C307        O315   1.257       .  A
C307        C406   1.473   1_556  S
O308        C316   1.257       .  A
O309        C316   1.261       .  A
C310        O317   1.254       .  A
C310        O311   1.263       .  A
C310        C462   1.469   1_455  S
C312        O314   1.266       .  A
C312        O318   1.265       .  A
C312        C325   1.482       .  S
C316        C374   1.472   1_556  S
C319        C321   1.530       .  S
C319        C330   1.533       .  S
C319        C338   1.535       .  S
C319        C381   1.537       .  S
C320        C322   1.536       .  S
C320        C326   1.534       .  S
C320        C402   1.529       .  S
C320        C421   1.546       .  S
C321        C322   1.352       .  D
C321        H323   1.085       .  S
C322        H324   1.087       .  S
C325        C326   1.346       .  D
C325        H327   1.086       .  S
C326        H328   1.089       .  S
C329        C330   1.346       .  D
C329        H331   1.087       .  S
C330        H332   1.087       .  S
C333        C334   1.334       .  D
C333        H335   1.087       .  S
C334        H336   1.087       .  S
C337        C338   1.346       .  D
C337        H339   1.086       .  S
C338        H340   1.088       .  S
C341        C342   1.348       .  D
C341        H343   1.087       .  S
C342        H344   1.086       .  S
C345        C346   1.335       .  D
C345        H347   1.087       .  S
C346        H348   1.086       .  S
C349        C350   1.352       .  D
C349        H351   1.089       .  S
C350        H352   1.084       .  S
C353        C354   1.354       .  D
C353        H355   1.090       .  S
C354        H356   1.089       .  S
C357        C358   1.356       .  D
C357        H359   1.086       .  S
C358        H360   1.084       .  S
C361        C362   1.346       .  D
C361        H363   1.088       .  S
C362        H364   1.086       .  S
C365        C366   1.349       .  D
C365        H367   1.084       .  S
C366        H368   1.085       .  S
C369        C370   1.348       .  D
C369        H371   1.082       .  S
C370        H372   1.086       .  S
C373        C374   1.346       .  D
C373        H375   1.087       .  S
C374        H376   1.087   1_554  S
C377        C378   1.351       .  D
C377        H379   1.086       .  S
C378        H380   1.087       .  S
C381        C382   1.354       .  D
C381        H383   1.088       .  S
C382        H384   1.084       .  S
C385        C386   1.344       .  D
C385        H387   1.087       .  S
C386        H388   1.087       .  S
C389        C390   1.347       .  D
C389        H391   1.088       .  S
C390        H392   1.090       .  S
C393        C394   1.342       .  D
C393        H395   1.086   1_554  S
C394        H396   1.088       .  S
C397        C398   1.346       .  D
C397        H399   1.087   1_554  S
C398        H400   1.086       .  S
C401        C402   1.349       .  D
C401        H403   1.087       .  S
C402        H404   1.089       .  S
C405        C406   1.350       .  D
C405        H407   1.086       .  S
C406        H408   1.087   1_554  S
C409        C410   1.349       .  D
C409        H411   1.087       .  S
C410        H412   1.081       .  S
C413        C414   1.342       .  D
C413        H415   1.087       .  S
C414        H416   1.087       .  S
C417        C418   1.336       .  D
C417        H419   1.087       .  S
C418        H420   1.087       .  S
C421        C422   1.349       .  D
C421        H423   1.088       .  S
C422        H424   1.080       .  S
C425        C426   1.340   1_655  D
C425        H427   1.087       .  S
C426        H428   1.087   1_455  S
C429        C430   1.343       .  D
C429        H431   1.087       .  S
C430        H432   1.087       .  S
C433        C434   1.346       .  D
C433        H435   1.087       .  S
C434        H436   1.087       .  S
C437        C438   1.350       .  D
C437        H439   1.088       .  S
C438        H440   1.080       .  S
C441        C442   1.354       .  D
C441        H443   1.086       .  S
C442        H444   1.085       .  S
C445        C446   1.341       .  D
C445        H447   1.088       .  S
C446        H448   1.087       .  S
C449        C450   1.349       .  D
C449        H451   1.088       .  S
C450        H452   1.086       .  S
C453        C454   1.347   1_655  D
C453        H455   1.087       .  S
C454        H456   1.086       .  S
C457        C458   1.337       .  D
C457        H459   1.087   1_554  S
C458        H460   1.087       .  S
C461        C462   1.339       .  D
C461        H463   1.087       .  S
C462        H464   1.087       .  S
C465        C466   1.345       .  D
C465        H467   1.087       .  S
C466        H468   1.087       .  S
C469        C470   1.351       .  D
C469        H471   1.087       .  S
C470        H472   1.083       .  S
C473        C474   1.342       .  D
C473        H475   1.087       .  S
C474        H476   1.087       .  S
C477        C478   1.344       .  D
C477        H479   1.086       .  S
C478        H480   1.087       .  S
C481        C482   1.351       .  D
C481        H483   1.087       .  S
C482        H484   1.086       .  S
C485        C486   1.349       .  D
C485        H487   1.087       .  S
C486        H488   1.082       .  S
C489        C490   1.351       .  D
C489        H491   1.087       .  S
C490        H492   1.087       .  S
C493        C494   1.354       .  D
C493        H495   1.086       .  S
C494        H496   1.088       .  S
C497        C498   1.344       .  D
C497        H499   1.086       .  S
C498        H500   1.086       .  S
C501        C502   1.346       .  D
C501        H503   1.087       .  S
C502        H504   1.087   1_554  S
C505        C506   1.349       .  D
C505        H507   1.088       .  S
C506        H508   1.086       .  S
C509        C510   1.342   1_545  D
C509        H511   1.086   1_545  S
C510        H512   1.087       .  S
C513        C514   1.346       .  D
C513        H515   1.086       .  S
C514        H516   1.087       .  S
C517        C518   1.350       .  D
C517        H519   1.087       .  S
C518        H520   1.086       .  S
C521        C522   1.342   1_565  D
C521        H523   1.087   1_565  S
C522        H524   1.088   1_545  S
C525        C526   1.349       .  D
C525        H527   1.083       .  S
C526        H528   1.087       .  S
C529        C530   1.342   1_545  D
C529        H531   1.087   1_545  S
C530        H532   1.087       .  S
C533        C534   1.348       .  D
C533        H535   1.087       .  S
C534        H536   1.087       .  S
C537        C538   1.352       .  D
C537        H539   1.083       .  S
C538        H540   1.088       .  S
C541        C542   1.344       .  D
C541        H543   1.087       .  S
C542        H544   1.087       .  S
C545        C546   1.341       .  D
C545        H547   1.087       .  S
C546        H548   1.086       .  S
C549        C550   1.342       .  D
C549        H551   1.087       .  S
C550        H552   1.087       .  S
C553        C554   1.346       .  D
C553        H555   1.087       .  S
C554        H556   1.086       .  S
C557        C558   1.346       .  D
C557        H559   1.090       .  S
C558        H560   1.086       .  S
C561        C562   1.340       .  D
C561        H563   1.087       .  S
C562        H564   1.087       .  S
C565        C566   1.347       .  D
C565        H567   1.087       .  S
C566        H568   1.087       .  S
C569        C570   1.347       .  D
C569        H571   1.087       .  S
C570        H572   1.086       .  S
C573        C574   1.351       .  D
C573        H575   1.087       .  S
C574        H576   1.086       .  S
